// ============================================================================
// F06 LOAD SHAPES - Real Data for 2025-05-09
// Generated from CEB metering data + disaggregation
// ============================================================================

New Loadshape.F06_Industrial_Factory_20250509
~   npts=96  interval=0.25
~   mult=[0.6773, 0.6623, 0.6460, 0.6451, 0.6381, 0.6390, 0.6329, 0.6244, 0.6137, 0.6027, 0.6024, 0.5954, 0.5915, 0.5862, 0.5832, 0.5827, 0.5727, 0.5726, 0.5662, 0.5712, 0.5696, 0.6214, 0.6731, 0.7376, 0.7896, 0.8565, 0.9102, 0.9518, 0.9610, 0.9386, 0.9215, 0.9193, 0.8510, 0.8253, 0.8199, 0.8826, 0.9202, 0.9150, 0.8694, 0.8481, 0.8227, 0.8103, 0.8290, 0.6478, 0.7128, 0.5881, 0.5790, 0.6051, 0.5479, 0.5813, 0.6207, 0.5768, 0.6059, 0.6493, 0.7215, 0.6916, 0.7991, 0.8121, 0.8056, 0.7857, 0.7483, 0.7208, 0.6967, 0.6484, 0.5907, 0.5469, 0.5140, 0.4997, 0.5374, 0.5989, 0.6383, 0.6544, 0.7014, 0.7477, 0.8004, 0.8760, 0.9734, 1.0277, 1.0470, 1.0452, 1.0395, 1.0463, 1.0323, 1.0267, 1.0106, 0.9831, 0.9604, 0.9322, 0.9191, 0.8840, 0.8532, 0.8163, 0.7807, 0.7468, 0.7219, 0.6992]

New Loadshape.F06_SmallIndustry_20250509
~   npts=96  interval=0.25
~   mult=[0.2822, 0.2677, 0.2528, 0.2437, 0.2320, 0.2297, 0.2248, 0.2190, 0.2125, 0.2106, 0.2126, 0.2122, 0.2129, 0.2169, 0.2216, 0.2272, 0.2291, 0.2514, 0.2696, 0.2923, 0.3107, 0.3833, 0.4602, 0.5509, 0.6368, 0.7678, 0.8959, 1.0185, 1.1088, 1.1827, 1.2670, 1.3790, 1.3925, 1.4344, 1.5167, 1.7419, 1.9426, 2.0615, 2.0975, 2.1995, 2.3034, 2.3649, 2.5253, 2.0626, 2.3759, 1.9359, 1.8818, 1.9413, 1.7349, 1.7867, 1.8521, 1.6708, 1.7042, 1.7595, 1.8845, 1.7415, 1.9406, 1.8138, 1.6616, 1.5022, 1.3303, 1.1643, 1.0285, 0.8789, 0.7384, 0.5995, 0.4956, 0.4248, 0.4030, 0.4023, 0.3830, 0.3496, 0.3322, 0.3399, 0.3489, 0.3659, 0.3894, 0.4002, 0.3966, 0.3847, 0.3712, 0.3678, 0.3569, 0.3487, 0.3369, 0.3333, 0.3316, 0.3280, 0.3299, 0.3220, 0.3156, 0.3068, 0.2985, 0.2914, 0.2876, 0.2848]

New Loadshape.F06_Residential_20250509
~   npts=96  interval=0.25
~   mult=[0.3951, 0.3805, 0.3652, 0.3584, 0.3480, 0.3475, 0.3431, 0.3373, 0.3305, 0.3247, 0.3248, 0.3213, 0.3194, 0.3195, 0.3208, 0.3234, 0.3207, 0.3603, 0.3937, 0.4331, 0.4661, 0.5612, 0.6616, 0.7805, 0.8915, 0.9725, 1.0392, 1.0925, 1.1088, 1.0512, 0.9983, 0.9593, 0.8510, 0.8056, 0.7789, 0.8129, 0.8180, 0.8343, 0.8151, 0.8199, 0.8227, 0.8403, 0.8928, 0.7255, 0.8316, 0.7106, 0.7238, 0.7816, 0.7305, 0.7861, 0.8510, 0.8011, 0.8521, 0.9169, 1.0230, 0.9843, 1.1415, 1.1099, 1.0574, 0.9937, 0.9146, 0.8317, 0.7631, 0.6772, 0.5907, 0.5364, 0.4956, 0.4747, 0.5038, 0.5721, 0.6201, 0.6454, 0.7014, 0.7477, 0.8004, 0.8760, 0.9734, 1.0070, 1.0047, 0.9816, 0.9546, 0.9400, 0.9060, 0.8788, 0.8421, 0.7910, 0.7431, 0.6905, 0.6481, 0.6059, 0.5669, 0.5239, 0.4822, 0.4554, 0.4343, 0.4144]
