// ============================================================================
// F06 LOAD SHAPES - Real Data for 2025-05-22
// Generated from CEB metering data + disaggregation
// ============================================================================

New Loadshape.F06_Industrial_Factory_20250522
~   npts=96  interval=0.25
~   mult=[0.7232, 0.7138, 0.7002, 0.6865, 0.6862, 0.6807, 0.6747, 0.6692, 0.6624, 0.6584, 0.6526, 0.6439, 0.6340, 0.6310, 0.6262, 0.6229, 0.6208, 0.6120, 0.6114, 0.6114, 0.6116, 0.6495, 0.6995, 0.7578, 0.8125, 0.8787, 0.9193, 0.9368, 0.9419, 0.8999, 0.8832, 0.8558, 0.9028, 0.8231, 0.8091, 0.7958, 0.7892, 0.7896, 0.7633, 0.7454, 0.7234, 0.6634, 0.6124, 0.5698, 0.5247, 0.5476, 0.5682, 0.5873, 0.6102, 0.5930, 0.6310, 0.5769, 0.6001, 0.5192, 0.5004, 0.4927, 0.4127, 0.4046, 0.3966, 0.4006, 0.4190, 0.3822, 0.3716, 0.3712, 0.4398, 0.4472, 0.5563, 0.5084, 0.5299, 0.5687, 0.6278, 0.6726, 0.7177, 0.7667, 0.8217, 0.8964, 0.9870, 1.0533, 0.1183, 0.9686, 1.0354, 1.0302, 1.0727, 1.0621, 1.0599, 1.0456, 1.0323, 1.0087, 0.9906, 0.9665, 0.9118, 0.8847, 0.8514, 0.8244, 0.7910, 0.7688]

New Loadshape.F06_SmallIndustry_20250522
~   npts=96  interval=0.25
~   mult=[0.3013, 0.2886, 0.2740, 0.2593, 0.2495, 0.2447, 0.2396, 0.2347, 0.2293, 0.2301, 0.2303, 0.2295, 0.2282, 0.2335, 0.2380, 0.2429, 0.2483, 0.2687, 0.2911, 0.3128, 0.3336, 0.4006, 0.4783, 0.5660, 0.6553, 0.7877, 0.9048, 1.0024, 1.0869, 1.1339, 1.2144, 1.2837, 1.4773, 1.4306, 1.4967, 1.5706, 1.6660, 1.7789, 1.8415, 1.9330, 2.0255, 1.9361, 1.8655, 1.8142, 1.7488, 1.8026, 1.8467, 1.8842, 1.9324, 1.8227, 1.8829, 1.6712, 1.6878, 1.4069, 1.3070, 1.2408, 1.0024, 0.9036, 0.8179, 0.7659, 0.7449, 0.6174, 0.5486, 0.5032, 0.5497, 0.4902, 0.5365, 0.4321, 0.3974, 0.3819, 0.3767, 0.3593, 0.3400, 0.3485, 0.3582, 0.3745, 0.3948, 0.4102, 0.0448, 0.3565, 0.3698, 0.3622, 0.3709, 0.3608, 0.3533, 0.3545, 0.3564, 0.3549, 0.3556, 0.3521, 0.3372, 0.3325, 0.3255, 0.3216, 0.3152, 0.3131]

New Loadshape.F06_Residential_20250522
~   npts=96  interval=0.25
~   mult=[0.4219, 0.4100, 0.3958, 0.3814, 0.3743, 0.3702, 0.3657, 0.3616, 0.3567, 0.3548, 0.3519, 0.3474, 0.3424, 0.3439, 0.3444, 0.3457, 0.3476, 0.3851, 0.4251, 0.4635, 0.5004, 0.5866, 0.6875, 0.8018, 0.9174, 0.9977, 1.0496, 1.0753, 1.0869, 1.0079, 0.9568, 0.8930, 0.9028, 0.8035, 0.7686, 0.7329, 0.7015, 0.7199, 0.7156, 0.7205, 0.7234, 0.6880, 0.6595, 0.6381, 0.6121, 0.6617, 0.7103, 0.7586, 0.8136, 0.8020, 0.8651, 0.8013, 0.8439, 0.7332, 0.7095, 0.7013, 0.5896, 0.5530, 0.5205, 0.5067, 0.5121, 0.4410, 0.4070, 0.3877, 0.4398, 0.4386, 0.5365, 0.4830, 0.4968, 0.5432, 0.6099, 0.6634, 0.7177, 0.7667, 0.8217, 0.8964, 0.9870, 1.0321, 0.1135, 0.9096, 0.9509, 0.9256, 0.9414, 0.9091, 0.8833, 0.8413, 0.7988, 0.7472, 0.6985, 0.6625, 0.6058, 0.5678, 0.5259, 0.5028, 0.4759, 0.4557]
