// ============================================================================
// F06 LOAD SHAPES - Real Data for 2025-06-17
// Generated from CEB metering data + disaggregation
// ============================================================================

New Loadshape.F06_Industrial_Factory_20250617
~   npts=96  interval=0.25
~   mult=[0.7140, 0.7098, 0.6912, 0.6798, 0.6691, 0.6697, 0.6624, 0.6513, 0.6491, 0.6425, 0.6354, 0.6327, 0.6279, 0.6253, 0.6198, 0.6126, 0.6152, 0.6051, 0.6008, 0.6008, 0.5996, 0.6416, 0.6881, 0.7350, 0.7823, 0.8302, 0.8614, 0.8766, 0.8669, 0.8645, 0.8580, 0.8206, 0.8198, 0.8359, 0.7415, 0.6864, 0.6655, 0.7004, 0.7592, 0.7393, 0.7703, 0.7296, 0.6945, 0.6923, 0.7387, 0.6790, 0.5557, 0.5472, 0.5594, 0.5848, 0.5197, 0.5291, 0.5663, 0.5222, 0.4609, 0.4788, 0.4792, 0.4373, 0.3924, 0.4448, 0.5131, 0.5911, 0.5363, 0.3904, 0.3539, 0.5155, 0.5660, 0.5201, 0.5385, 0.6220, 0.6370, 0.6477, 0.6639, 0.7793, 0.8330, 0.9002, 0.9804, 1.0573, 1.0813, 1.0715, 1.0789, 1.0766, 0.9850, 0.9754, 0.9694, 0.9517, 0.9305, 0.9084, 0.8786, 0.8492, 0.8496, 0.8372, 0.8100, 0.7897, 0.7570, 0.7312]

New Loadshape.F06_SmallIndustry_20250617
~   npts=96  interval=0.25
~   mult=[0.2975, 0.2869, 0.2705, 0.2568, 0.2433, 0.2407, 0.2353, 0.2284, 0.2247, 0.2245, 0.2243, 0.2255, 0.2260, 0.2314, 0.2355, 0.2389, 0.2461, 0.2656, 0.2861, 0.3074, 0.3270, 0.3957, 0.4705, 0.5490, 0.6309, 0.7442, 0.8478, 0.9380, 1.0003, 1.0893, 1.1798, 1.2308, 1.3415, 1.4528, 1.3718, 1.3548, 1.4049, 1.5780, 1.8316, 1.9172, 2.1568, 2.1292, 2.1155, 2.2043, 2.4623, 2.2349, 1.8059, 1.7555, 1.7714, 1.7975, 1.5506, 1.5326, 1.5928, 1.4150, 1.2038, 1.2058, 1.1637, 0.9767, 0.8093, 0.8503, 0.9121, 0.9548, 0.7916, 0.5293, 0.4424, 0.5650, 0.5458, 0.4421, 0.4039, 0.4178, 0.3822, 0.3461, 0.3145, 0.3542, 0.3631, 0.3760, 0.3922, 0.4118, 0.4096, 0.3943, 0.3853, 0.3785, 0.3406, 0.3313, 0.3231, 0.3227, 0.3213, 0.3196, 0.3154, 0.3093, 0.3142, 0.3147, 0.3097, 0.3081, 0.3016, 0.2978]

New Loadshape.F06_Residential_20250617
~   npts=96  interval=0.25
~   mult=[0.4165, 0.4078, 0.3907, 0.3777, 0.3650, 0.3642, 0.3591, 0.3519, 0.3495, 0.3462, 0.3426, 0.3414, 0.3391, 0.3408, 0.3409, 0.3400, 0.3445, 0.3808, 0.4177, 0.4555, 0.4905, 0.5795, 0.6763, 0.7777, 0.8832, 0.9427, 0.9834, 1.0063, 1.0003, 0.9683, 0.9295, 0.8562, 0.8198, 0.8160, 0.7044, 0.6322, 0.5915, 0.6386, 0.7118, 0.7146, 0.7703, 0.7566, 0.7479, 0.7754, 0.8618, 0.8204, 0.6946, 0.7068, 0.7459, 0.7909, 0.7124, 0.7348, 0.7964, 0.7374, 0.6535, 0.6815, 0.6845, 0.5977, 0.5150, 0.5625, 0.6271, 0.6820, 0.5873, 0.4078, 0.3539, 0.5056, 0.5458, 0.4941, 0.5048, 0.5942, 0.6188, 0.6389, 0.6639, 0.7793, 0.8330, 0.9002, 0.9804, 1.0360, 1.0376, 1.0063, 0.9908, 0.9672, 0.8645, 0.8349, 0.8079, 0.7658, 0.7200, 0.6729, 0.6195, 0.5820, 0.5645, 0.5374, 0.5003, 0.4816, 0.4554, 0.4334]
