// ============================================================================
// F06 LOAD SHAPES - Real Data for 2025-06-11
// Generated from CEB metering data + disaggregation
// ============================================================================

New Loadshape.F06_Industrial_Factory_20250611
~   npts=96  interval=0.25
~   mult=[0.7321, 0.7230, 0.7057, 0.6901, 0.6831, 0.6726, 0.6665, 0.6641, 0.6536, 0.6414, 0.6381, 0.6408, 0.6370, 0.6338, 0.6301, 0.6259, 0.6232, 0.6162, 0.6089, 0.6069, 0.6107, 0.6455, 0.6967, 0.7458, 0.7963, 0.8520, 0.8854, 0.8945, 0.9263, 0.9106, 0.8426, 0.8123, 0.8046, 0.8354, 0.8269, 0.8175, 0.8393, 0.7994, 0.7598, 0.7796, 0.7051, 0.6728, 0.5972, 0.5524, 0.5206, 0.4851, 0.4446, 0.4531, 0.6262, 0.5537, 0.4880, 0.5382, 0.4940, 0.3954, 0.4853, 0.4709, 0.3288, 0.3582, 0.5046, 0.5533, 0.3308, 0.4202, 0.3247, 0.4749, 0.5506, 0.3936, 0.4513, 0.4878, 0.4904, 0.6135, 0.6601, 0.6813, 0.7168, 0.7520, 0.7921, 0.8640, 0.9564, 1.0349, 1.0561, 1.0619, 1.0565, 1.0430, 1.0253, 1.0100, 0.9871, 0.9689, 0.9525, 0.9316, 0.9046, 0.8937, 0.8616, 0.8302, 0.8059, 0.7879, 0.7619, 0.7461]

New Loadshape.F06_SmallIndustry_20250611
~   npts=96  interval=0.25
~   mult=[0.3050, 0.2923, 0.2761, 0.2607, 0.2484, 0.2418, 0.2367, 0.2329, 0.2262, 0.2242, 0.2252, 0.2284, 0.2293, 0.2345, 0.2394, 0.2441, 0.2493, 0.2705, 0.2899, 0.3105, 0.3331, 0.3981, 0.4764, 0.5570, 0.6422, 0.7637, 0.8715, 0.9571, 1.0688, 1.1473, 1.1586, 1.2185, 1.3166, 1.4520, 1.5298, 1.6135, 1.7719, 1.8011, 1.8331, 2.0218, 1.9742, 1.9636, 1.8193, 1.7589, 1.7352, 1.5968, 1.4450, 1.4537, 1.9829, 1.7018, 1.4561, 1.5590, 1.3894, 1.0715, 1.2676, 1.1859, 0.7986, 0.8000, 1.0408, 1.0578, 0.5881, 0.6787, 0.4793, 0.6437, 0.6882, 0.4314, 0.4352, 0.4146, 0.3678, 0.4121, 0.3961, 0.3640, 0.3395, 0.3418, 0.3453, 0.3609, 0.3826, 0.4030, 0.4000, 0.3908, 0.3773, 0.3667, 0.3545, 0.3431, 0.3290, 0.3285, 0.3288, 0.3278, 0.3247, 0.3255, 0.3187, 0.3121, 0.3081, 0.3074, 0.3036, 0.3039]

New Loadshape.F06_Residential_20250611
~   npts=96  interval=0.25
~   mult=[0.4271, 0.4153, 0.3988, 0.3834, 0.3726, 0.3657, 0.3613, 0.3588, 0.3519, 0.3456, 0.3441, 0.3458, 0.3440, 0.3454, 0.3465, 0.3474, 0.3490, 0.3877, 0.4233, 0.4601, 0.4997, 0.5829, 0.6848, 0.7891, 0.8990, 0.9674, 1.0109, 1.0267, 1.0688, 1.0199, 0.9128, 0.8476, 0.8046, 0.8155, 0.7856, 0.7530, 0.7461, 0.7289, 0.7124, 0.7536, 0.7051, 0.6977, 0.6432, 0.6187, 0.6073, 0.5862, 0.5558, 0.5853, 0.8349, 0.7488, 0.6690, 0.7475, 0.6947, 0.5584, 0.6881, 0.6703, 0.4698, 0.4896, 0.6623, 0.6998, 0.4043, 0.4848, 0.3556, 0.4960, 0.5506, 0.3860, 0.4352, 0.4634, 0.4598, 0.5861, 0.6413, 0.6720, 0.7168, 0.7520, 0.7921, 0.8640, 0.9564, 1.0141, 1.0135, 0.9972, 0.9702, 0.9371, 0.8999, 0.8646, 0.8226, 0.7796, 0.7370, 0.6901, 0.6379, 0.6126, 0.5724, 0.5329, 0.4977, 0.4805, 0.4584, 0.4423]
