// ============================================================================
// F06 LOAD SHAPES - Real Data for 2025-06-30
// Generated from CEB metering data + disaggregation
// ============================================================================

New Loadshape.F06_Industrial_Factory_20250630
~   npts=96  interval=0.25
~   mult=[0.7264, 0.7142, 0.7061, 0.7014, 0.6951, 0.6850, 0.6871, 0.6804, 0.6726, 0.6665, 0.6613, 0.6600, 0.6537, 0.6472, 0.6369, 0.6352, 0.6288, 0.6178, 0.6188, 0.6217, 0.6233, 0.6680, 0.7230, 0.7733, 0.8193, 0.8856, 0.9463, 0.9738, 0.9535, 0.9385, 0.9692, 0.9243, 0.9237, 0.9324, 0.9330, 0.9087, 0.8631, 0.8181, 0.8251, 0.7754, 0.7628, 0.7478, 0.7071, 0.6555, 0.6287, 0.6165, 0.6156, 0.6185, 0.6206, 0.6176, 0.5759, 0.5620, 0.5892, 0.5650, 0.5512, 0.4857, 0.4444, 0.3960, 0.3740, 0.3580, 0.2883, 0.3162, 0.3742, 0.4707, 0.5122, 0.5838, 0.6834, 0.6642, 0.6400, 0.6598, 0.6917, 0.7041, 0.7543, 0.8034, 0.8637, 0.9163, 0.9879, 1.0839, 1.1164, 1.1333, 1.1302, 1.1113, 1.1073, 1.0905, 1.0715, 1.0552, 1.0244, 1.0204, 1.0024, 0.9811, 0.9421, 0.9086, 0.8794, 0.8456, 0.8145, 0.7941]

New Loadshape.F06_SmallIndustry_20250630
~   npts=96  interval=0.25
~   mult=[0.3026, 0.2887, 0.2763, 0.2650, 0.2528, 0.2462, 0.2440, 0.2386, 0.2328, 0.2330, 0.2334, 0.2352, 0.2353, 0.2395, 0.2420, 0.2477, 0.2515, 0.2712, 0.2947, 0.3181, 0.3400, 0.4120, 0.4944, 0.5775, 0.6608, 0.7939, 0.9314, 1.0420, 1.1002, 1.1825, 1.3327, 1.3864, 1.5115, 1.6206, 1.7261, 1.7935, 1.8222, 1.8432, 1.9906, 2.0108, 2.1358, 2.1825, 2.1538, 2.0872, 2.0958, 2.0293, 2.0006, 1.9842, 1.9653, 1.8984, 1.7184, 1.6281, 1.6572, 1.5311, 1.4398, 1.2231, 1.0792, 0.8845, 0.7714, 0.6845, 0.5126, 0.5108, 0.5524, 0.6380, 0.6402, 0.6400, 0.6590, 0.5646, 0.4800, 0.4431, 0.4150, 0.3762, 0.3573, 0.3652, 0.3765, 0.3828, 0.3952, 0.4221, 0.4229, 0.4171, 0.4037, 0.3907, 0.3829, 0.3704, 0.3572, 0.3578, 0.3537, 0.3590, 0.3598, 0.3573, 0.3484, 0.3415, 0.3362, 0.3299, 0.3245, 0.3234]

New Loadshape.F06_Residential_20250630
~   npts=96  interval=0.25
~   mult=[0.4237, 0.4103, 0.3991, 0.3897, 0.3792, 0.3725, 0.3724, 0.3676, 0.3622, 0.3592, 0.3566, 0.3561, 0.3530, 0.3527, 0.3503, 0.3525, 0.3521, 0.3888, 0.4302, 0.4713, 0.5100, 0.6032, 0.7107, 0.8182, 0.9251, 1.0056, 1.0804, 1.1178, 1.1002, 1.0511, 1.0500, 0.9645, 0.9237, 0.9102, 0.8864, 0.8369, 0.7672, 0.7459, 0.7735, 0.7495, 0.7628, 0.7755, 0.7614, 0.7342, 0.7335, 0.7449, 0.7695, 0.7988, 0.8275, 0.8353, 0.7895, 0.7806, 0.8286, 0.7979, 0.7816, 0.6913, 0.6348, 0.5413, 0.4909, 0.4528, 0.3524, 0.3649, 0.4098, 0.4916, 0.5122, 0.5726, 0.6590, 0.6310, 0.6000, 0.6302, 0.6720, 0.6945, 0.7543, 0.8034, 0.8637, 0.9163, 0.9879, 1.0621, 1.0713, 1.0643, 1.0380, 0.9984, 0.9719, 0.9334, 0.8930, 0.8490, 0.7927, 0.7558, 0.7068, 0.6725, 0.6259, 0.5832, 0.5431, 0.5157, 0.4900, 0.4707]
