// ============================================================================
// F06 LOAD SHAPES - Real Data for 2025-05-23
// Generated from CEB metering data + disaggregation
// ============================================================================

New Loadshape.F06_Industrial_Factory_20250523
~   npts=96  interval=0.25
~   mult=[0.7295, 0.7296, 0.7223, 0.7099, 0.7006, 0.6909, 0.6861, 0.6843, 0.6771, 0.6749, 0.6742, 0.6659, 0.6602, 0.6553, 0.6498, 0.6440, 0.6404, 0.6395, 0.6394, 0.6391, 0.6452, 0.6925, 0.7592, 0.8262, 0.8859, 0.9481, 1.0006, 1.0446, 1.0409, 1.0149, 1.0005, 0.9629, 0.9478, 0.9406, 0.9364, 0.9654, 0.9087, 0.8603, 0.8765, 0.8213, 0.7977, 0.7876, 0.7615, 0.7247, 0.6330, 0.6192, 0.6015, 0.5878, 0.5995, 0.6013, 0.5459, 0.5245, 0.5590, 0.5686, 0.5936, 0.6010, 0.5822, 0.5457, 0.5272, 0.4525, 0.4569, 0.4452, 0.4660, 0.3963, 0.4167, 0.4748, 0.5031, 0.4866, 0.4934, 0.5859, 0.7239, 0.6991, 0.7410, 0.8005, 0.8415, 0.9090, 1.0038, 1.0558, 1.0712, 1.0805, 1.0889, 1.0876, 1.0715, 1.0643, 1.0481, 1.0458, 1.0157, 0.9984, 0.9718, 0.9472, 0.9126, 0.8807, 0.8498, 0.8244, 0.7918, 0.7726]

New Loadshape.F06_SmallIndustry_20250523
~   npts=96  interval=0.25
~   mult=[0.3040, 0.2949, 0.2826, 0.2682, 0.2548, 0.2483, 0.2436, 0.2400, 0.2344, 0.2359, 0.2379, 0.2373, 0.2377, 0.2425, 0.2469, 0.2512, 0.2562, 0.2807, 0.3045, 0.3270, 0.3520, 0.4271, 0.5191, 0.6170, 0.7144, 0.8499, 0.9848, 1.1178, 1.2010, 1.2787, 1.3757, 1.4444, 1.5509, 1.6348, 1.7323, 1.9054, 1.9183, 1.9381, 2.1145, 2.1298, 2.2335, 2.2985, 2.3196, 2.3074, 2.1099, 2.0383, 1.9549, 1.8858, 1.8984, 1.8483, 1.6290, 1.5194, 1.5721, 1.5409, 1.5505, 1.5135, 1.4139, 1.2188, 1.0873, 0.8652, 0.8123, 0.7191, 0.6880, 0.5373, 0.5208, 0.5205, 0.4851, 0.4136, 0.3701, 0.3935, 0.4343, 0.3735, 0.3510, 0.3639, 0.3668, 0.3797, 0.4015, 0.4112, 0.4058, 0.3977, 0.3889, 0.3824, 0.3705, 0.3615, 0.3494, 0.3546, 0.3507, 0.3513, 0.3488, 0.3450, 0.3375, 0.3310, 0.3249, 0.3216, 0.3155, 0.3147]

New Loadshape.F06_Residential_20250523
~   npts=96  interval=0.25
~   mult=[0.4256, 0.4191, 0.4083, 0.3944, 0.3821, 0.3757, 0.3719, 0.3697, 0.3646, 0.3637, 0.3635, 0.3593, 0.3565, 0.3572, 0.3574, 0.3574, 0.3586, 0.4024, 0.4445, 0.4845, 0.5279, 0.6254, 0.7462, 0.8741, 1.0002, 1.0765, 1.1424, 1.1991, 1.2010, 1.1366, 1.0839, 1.0048, 0.9478, 0.9182, 0.8896, 0.8892, 0.8077, 0.7844, 0.8217, 0.7939, 0.7977, 0.8167, 0.8201, 0.8116, 0.7385, 0.7482, 0.7519, 0.7592, 0.7993, 0.8133, 0.7484, 0.7285, 0.7860, 0.8030, 0.8417, 0.8554, 0.8317, 0.7459, 0.6919, 0.5723, 0.5585, 0.5136, 0.5104, 0.4140, 0.4167, 0.4657, 0.4851, 0.4622, 0.4626, 0.5596, 0.7032, 0.6895, 0.7410, 0.8005, 0.8415, 0.9090, 1.0038, 1.0345, 1.0279, 1.0147, 1.0000, 0.9772, 0.9404, 0.9110, 0.8734, 0.8414, 0.7860, 0.7395, 0.6852, 0.6493, 0.6063, 0.5653, 0.5249, 0.5028, 0.4763, 0.4580]
