// ============================================================================
// F07 LOAD SHAPES - Real Data for 2025-05-18
// Generated from CEB metering data + disaggregation
// ============================================================================

New Loadshape.F07_Village_Center_20250518
~   npts=96  interval=0.25
~   mult=[0.4770, 0.4105, 0.4029, 0.3900, 0.3862, 0.3809, 0.5098, 0.5275, 0.5161, 0.5063, 0.5041, 0.5176, 0.5090, 0.4701, 0.4397, 0.4129, 0.3906, 0.3639, 0.3504, 0.3426, 0.3375, 0.3751, 0.4138, 0.4610, 0.5016, 0.5481, 0.5797, 0.5968, 0.6121, 0.6218, 0.6475, 0.6546, 0.6274, 0.6180, 0.6131, 0.5673, 0.5583, 0.5205, 0.5507, 0.7132, 0.6948, 0.6190, 0.6670, 0.7774, 0.9019, 0.7966, 0.7669, 0.6679, 0.6252, 0.6537, 0.5753, 0.6331, 0.5763, 0.6647, 0.5069, 0.3692, 0.3137, 0.3169, 0.2986, 0.2869, 0.2832, 0.2020, 0.1891, 0.2482, 0.2242, 0.2450, 0.2378, 0.1606, 0.1798, 0.2736, 0.2994, 0.3552, 0.4252, 0.5171, 0.6207, 0.7697, 0.9505, 1.0527, 1.0904, 1.1126, 1.1347, 1.1403, 1.1444, 1.1382, 1.1306, 1.1052, 1.0784, 1.0398, 0.9885, 0.9433, 0.8942, 0.8472, 0.8280, 0.9143, 0.8635, 0.8310]

New Loadshape.F07_Agricultural_20250518
~   npts=96  interval=0.25
~   mult=[0.1363, 0.1156, 0.1116, 0.1061, 0.1030, 0.1033, 0.1406, 0.1481, 0.1474, 0.1551, 0.1650, 0.1805, 0.1885, 0.2372, 0.2798, 0.3162, 0.3488, 0.4090, 0.4560, 0.4940, 0.5250, 0.5581, 0.5937, 0.6418, 0.6808, 0.7404, 0.7796, 0.7991, 0.8161, 0.8439, 0.8965, 0.9274, 0.9126, 0.8441, 0.7744, 0.6484, 0.5583, 0.4702, 0.4406, 0.4918, 0.3970, 0.3316, 0.3335, 0.3610, 0.3865, 0.3296, 0.3067, 0.2585, 0.2344, 0.2496, 0.2234, 0.2496, 0.2305, 0.2838, 0.2294, 0.1761, 0.1569, 0.2010, 0.2275, 0.2535, 0.2832, 0.2245, 0.2302, 0.3274, 0.3176, 0.3315, 0.3083, 0.2001, 0.2158, 0.2907, 0.2818, 0.2960, 0.3133, 0.3290, 0.3342, 0.3410, 0.3327, 0.3374, 0.3156, 0.2857, 0.2522, 0.2479, 0.2428, 0.2349, 0.2261, 0.2250, 0.2240, 0.2210, 0.2157, 0.2096, 0.2028, 0.1966, 0.1971, 0.2272, 0.2243, 0.2261]

New Loadshape.F07_Rural_Houses_20250518
~   npts=96  interval=0.25
~   mult=[0.5451, 0.4713, 0.4648, 0.4524, 0.4506, 0.4422, 0.5889, 0.6061, 0.5898, 0.5747, 0.5682, 0.5794, 0.5656, 0.5391, 0.5197, 0.5022, 0.4883, 0.4513, 0.4320, 0.4204, 0.4125, 0.4483, 0.4857, 0.5333, 0.5733, 0.5866, 0.5797, 0.5563, 0.5305, 0.5330, 0.5479, 0.5455, 0.5133, 0.5125, 0.5163, 0.4863, 0.4885, 0.4534, 0.4773, 0.6148, 0.5956, 0.5305, 0.5717, 0.6664, 0.7731, 0.6867, 0.6646, 0.5817, 0.5470, 0.5745, 0.5076, 0.5608, 0.5122, 0.5928, 0.4536, 0.3313, 0.2824, 0.2860, 0.2702, 0.2602, 0.2574, 0.1841, 0.1726, 0.2270, 0.2055, 0.2258, 0.2202, 0.1494, 0.1678, 0.2651, 0.2994, 0.3651, 0.4475, 0.5305, 0.6207, 0.7503, 0.9030, 0.9987, 1.0330, 1.0524, 1.0717, 1.0742, 1.0751, 1.0660, 1.0552, 1.0460, 1.0370, 1.0181, 0.9885, 0.9569, 0.9218, 0.8893, 0.8872, 0.9938, 0.9532, 0.9327]
