// ============================================================================
// F07 LOAD SHAPES - Real Data for 2025-08-16
// Generated from CEB metering data + disaggregation
// ============================================================================

New Loadshape.F07_Village_Center_20250816
~   npts=96  interval=0.25
~   mult=[0.7476, 0.7358, 0.7239, 0.7134, 0.7068, 0.6927, 0.6799, 0.6865, 0.6781, 0.6639, 0.6512, 0.6439, 0.6371, 0.5862, 0.5479, 0.5123, 0.4808, 0.4457, 0.4260, 0.4167, 0.4069, 0.4456, 0.4887, 0.5328, 0.5778, 0.6368, 0.6891, 0.7173, 0.7484, 0.7494, 0.7553, 0.7499, 0.7227, 0.6892, 0.7137, 0.7201, 0.8366, 0.8493, 0.8833, 0.7569, 0.7473, 0.7199, 0.7537, 0.7619, 0.7680, 0.7003, 0.5936, 0.5537, 0.4411, 0.4584, 0.5311, 0.5840, 0.5056, 0.4101, 0.3878, 0.3139, 0.2704, 0.2606, 0.1564, 0.3544, 0.2404, 0.1735, 0.1800, 0.2707, 0.2962, 0.3208, 0.3413, 0.3684, 0.3924, 0.4373, 0.4861, 0.5272, 0.5676, 0.6506, 0.7488, 0.8750, 1.0802, 1.2053, 1.2501, 1.2683, 1.2806, 1.2836, 1.2792, 1.2647, 1.2551, 1.2265, 1.1937, 1.1557, 1.1112, 1.0671, 1.0201, 0.9677, 0.9140, 0.8753, 0.8369, 0.8018]

New Loadshape.F07_Agricultural_20250816
~   npts=96  interval=0.25
~   mult=[0.2136, 0.2071, 0.2005, 0.1940, 0.1885, 0.1878, 0.1876, 0.1927, 0.1937, 0.2033, 0.2131, 0.2245, 0.2360, 0.2958, 0.3487, 0.3923, 0.4293, 0.5009, 0.5544, 0.6007, 0.6330, 0.6630, 0.7011, 0.7418, 0.7842, 0.8602, 0.9267, 0.9604, 0.9978, 1.0170, 1.0458, 1.0623, 1.0512, 0.9413, 0.9015, 0.8230, 0.8366, 0.7671, 0.7066, 0.5220, 0.4270, 0.3857, 0.3768, 0.3537, 0.3291, 0.2898, 0.2374, 0.2144, 0.1654, 0.1750, 0.2062, 0.2303, 0.2022, 0.1751, 0.1755, 0.1497, 0.1352, 0.1653, 0.1192, 0.3132, 0.2404, 0.1928, 0.2191, 0.3571, 0.4196, 0.4341, 0.4424, 0.4589, 0.4709, 0.4647, 0.4575, 0.4393, 0.4182, 0.4140, 0.4032, 0.3877, 0.3781, 0.3863, 0.3619, 0.3256, 0.2846, 0.2790, 0.2714, 0.2610, 0.2510, 0.2497, 0.2479, 0.2456, 0.2424, 0.2371, 0.2314, 0.2245, 0.2176, 0.2175, 0.2174, 0.2182]

New Loadshape.F07_Rural_Houses_20250816
~   npts=96  interval=0.25
~   mult=[0.8544, 0.8448, 0.8352, 0.8275, 0.8246, 0.8042, 0.7854, 0.7889, 0.7750, 0.7536, 0.7341, 0.7207, 0.7079, 0.6722, 0.6475, 0.6231, 0.6010, 0.5527, 0.5253, 0.5113, 0.4973, 0.5325, 0.5736, 0.6164, 0.6604, 0.6814, 0.6891, 0.6686, 0.6486, 0.6423, 0.6391, 0.6249, 0.5913, 0.5715, 0.6010, 0.6172, 0.7320, 0.7397, 0.7655, 0.6525, 0.6405, 0.6171, 0.6460, 0.6531, 0.6583, 0.6037, 0.5145, 0.4823, 0.3860, 0.4028, 0.4686, 0.5173, 0.4494, 0.3658, 0.3469, 0.2817, 0.2434, 0.2352, 0.1415, 0.3214, 0.2185, 0.1581, 0.1643, 0.2477, 0.2715, 0.2957, 0.3160, 0.3426, 0.3663, 0.4237, 0.4861, 0.5419, 0.5975, 0.6675, 0.7488, 0.8528, 1.0262, 1.1435, 1.1843, 1.1997, 1.2095, 1.2091, 1.2017, 1.1844, 1.1714, 1.1608, 1.1478, 1.1317, 1.1112, 1.0826, 1.0516, 1.0158, 0.9792, 0.9514, 0.9238, 0.9000]
