// ============================================================================
// F07 LOAD SHAPES - Real Data for 2025-08-05
// Generated from CEB metering data + disaggregation
// ============================================================================

New Loadshape.F07_Village_Center_20250805
~   npts=96  interval=0.25
~   mult=[0.6763, 0.6595, 0.6485, 0.6442, 0.6490, 0.6441, 0.6395, 0.6367, 0.6317, 0.6234, 0.6098, 0.6024, 0.5955, 0.5513, 0.5130, 0.4815, 0.4530, 0.4207, 0.4037, 0.3926, 0.3877, 0.4312, 0.4772, 0.5322, 0.5845, 0.6477, 0.7136, 0.7700, 0.7974, 0.8070, 0.8013, 0.7887, 0.7666, 0.8018, 0.8457, 0.8586, 0.8903, 0.9253, 1.0055, 1.1517, 1.2616, 1.2094, 1.1502, 1.1378, 1.1631, 1.2044, 1.1358, 1.0570, 1.0433, 0.9690, 0.9214, 0.8362, 0.7915, 0.7798, 0.6858, 0.6093, 0.5466, 0.4352, 0.3835, 0.3302, 0.2918, 0.2703, 0.2549, 0.2444, 0.2370, 0.2487, 0.2611, 0.2726, 0.2755, 0.3235, 0.3743, 0.4192, 0.4623, 0.5208, 0.6032, 0.6951, 0.8448, 0.9740, 1.0225, 1.0428, 1.0579, 1.0557, 1.0514, 1.0374, 1.0307, 1.0022, 0.9755, 0.9405, 0.8998, 0.8653, 0.8254, 0.7830, 0.7363, 0.7030, 0.6717, 0.6440]

New Loadshape.F07_Agricultural_20250805
~   npts=96  interval=0.25
~   mult=[0.1932, 0.1856, 0.1796, 0.1752, 0.1731, 0.1747, 0.1764, 0.1787, 0.1805, 0.1910, 0.1996, 0.2100, 0.2205, 0.2782, 0.3264, 0.3687, 0.4044, 0.4729, 0.5254, 0.5661, 0.6031, 0.6416, 0.6847, 0.7409, 0.7932, 0.8750, 0.9597, 1.0310, 1.0631, 1.0952, 1.1095, 1.1174, 1.1150, 1.0951, 1.0682, 0.9812, 0.8903, 0.8357, 0.8044, 0.7943, 0.7209, 0.6479, 0.5751, 0.5283, 0.4985, 0.4984, 0.4543, 0.4092, 0.3912, 0.3700, 0.3577, 0.3297, 0.3166, 0.3330, 0.3104, 0.2906, 0.2733, 0.2760, 0.2922, 0.2918, 0.2918, 0.3004, 0.3103, 0.3224, 0.3357, 0.3365, 0.3385, 0.3396, 0.3306, 0.3438, 0.3523, 0.3493, 0.3406, 0.3314, 0.3248, 0.3080, 0.2957, 0.3122, 0.2960, 0.2677, 0.2351, 0.2295, 0.2230, 0.2141, 0.2061, 0.2040, 0.2026, 0.1999, 0.1963, 0.1923, 0.1872, 0.1817, 0.1753, 0.1747, 0.1745, 0.1752]

New Loadshape.F07_Rural_Houses_20250805
~   npts=96  interval=0.25
~   mult=[0.7729, 0.7572, 0.7483, 0.7473, 0.7571, 0.7478, 0.7387, 0.7317, 0.7219, 0.7077, 0.6874, 0.6743, 0.6616, 0.6322, 0.6062, 0.5856, 0.5662, 0.5218, 0.4977, 0.4818, 0.4739, 0.5154, 0.5602, 0.6157, 0.6680, 0.6932, 0.7136, 0.7178, 0.6910, 0.6917, 0.6780, 0.6573, 0.6272, 0.6649, 0.7122, 0.7359, 0.7790, 0.8059, 0.8714, 0.9929, 1.0814, 1.0367, 0.9859, 0.9753, 0.9969, 1.0383, 0.9843, 0.9206, 0.9129, 0.8516, 0.8130, 0.7406, 0.7035, 0.6955, 0.6136, 0.5468, 0.4919, 0.3927, 0.3470, 0.2995, 0.2653, 0.2463, 0.2327, 0.2236, 0.2172, 0.2292, 0.2418, 0.2535, 0.2571, 0.3134, 0.3743, 0.4308, 0.4866, 0.5343, 0.6032, 0.6775, 0.8026, 0.9241, 0.9687, 0.9864, 0.9991, 0.9945, 0.9876, 0.9715, 0.9620, 0.9485, 0.9380, 0.9209, 0.8998, 0.8778, 0.8509, 0.8219, 0.7889, 0.7641, 0.7415, 0.7228]
