// ============================================================================
// F07 LOAD SHAPES - Real Data for 2025-07-19
// Generated from CEB metering data + disaggregation
// ============================================================================

New Loadshape.F07_Village_Center_20250719
~   npts=96  interval=0.25
~   mult=[0.8448, 0.8359, 0.8218, 0.8113, 0.7959, 0.7913, 0.7867, 0.7811, 0.7760, 0.7679, 0.7462, 0.7400, 0.7310, 0.6749, 0.6270, 0.5875, 0.5507, 0.5071, 0.4835, 0.4697, 0.4619, 0.4945, 0.5323, 0.5757, 0.6161, 0.6562, 0.7034, 0.7422, 0.7679, 0.7837, 0.7839, 0.7452, 0.6737, 0.6636, 0.6975, 0.7242, 0.7871, 0.8442, 0.9382, 1.0449, 1.1539, 1.1287, 1.0911, 0.9876, 0.9470, 0.7946, 0.7149, 0.7082, 0.8373, 0.9244, 1.0173, 0.9610, 0.7997, 0.7075, 0.5840, 0.6258, 0.8212, 0.6528, 0.5162, 0.4930, 0.4076, 0.3867, 0.3951, 0.3317, 0.3372, 0.4153, 0.4534, 0.3960, 0.3779, 0.4295, 0.4826, 0.5383, 0.5801, 0.6639, 0.7619, 0.8875, 1.0675, 1.2396, 1.3087, 1.3326, 1.3448, 1.3469, 1.3468, 1.3495, 1.3368, 1.3123, 1.2766, 1.2481, 1.1955, 1.1527, 1.1105, 1.0593, 1.0066, 0.9576, 0.9135, 0.8854]

New Loadshape.F07_Agricultural_20250719
~   npts=96  interval=0.25
~   mult=[0.2414, 0.2353, 0.2276, 0.2207, 0.2122, 0.2146, 0.2170, 0.2193, 0.2217, 0.2352, 0.2442, 0.2580, 0.2708, 0.3405, 0.3990, 0.4499, 0.4917, 0.5700, 0.6292, 0.6772, 0.7186, 0.7358, 0.7637, 0.8015, 0.8362, 0.8864, 0.9459, 0.9938, 1.0238, 1.0636, 1.0854, 1.0557, 0.9800, 0.9064, 0.8810, 0.8277, 0.7871, 0.7625, 0.7506, 0.7206, 0.6594, 0.6046, 0.5456, 0.4585, 0.4058, 0.3288, 0.2859, 0.2741, 0.3140, 0.3529, 0.3950, 0.3789, 0.3199, 0.3021, 0.2643, 0.2985, 0.4106, 0.4140, 0.3933, 0.4357, 0.4076, 0.4297, 0.4810, 0.4375, 0.4777, 0.5619, 0.5878, 0.4932, 0.4534, 0.4564, 0.4542, 0.4486, 0.4274, 0.4225, 0.4103, 0.3932, 0.3736, 0.3973, 0.3788, 0.3421, 0.2989, 0.2928, 0.2857, 0.2785, 0.2674, 0.2672, 0.2651, 0.2652, 0.2608, 0.2562, 0.2519, 0.2458, 0.2397, 0.2379, 0.2373, 0.2409]

New Loadshape.F07_Rural_Houses_20250719
~   npts=96  interval=0.25
~   mult=[0.9655, 0.9597, 0.9482, 0.9411, 0.9285, 0.9187, 0.9088, 0.8976, 0.8869, 0.8716, 0.8412, 0.8283, 0.8123, 0.7740, 0.7410, 0.7146, 0.6884, 0.6290, 0.5961, 0.5764, 0.5646, 0.5910, 0.6248, 0.6660, 0.7042, 0.7022, 0.7034, 0.6919, 0.6655, 0.6718, 0.6633, 0.6210, 0.5512, 0.5503, 0.5873, 0.6208, 0.6887, 0.7352, 0.8131, 0.9008, 0.9890, 0.9674, 0.9353, 0.8465, 0.8117, 0.6850, 0.6195, 0.6168, 0.7326, 0.8123, 0.8977, 0.8511, 0.7108, 0.6311, 0.5225, 0.5616, 0.7391, 0.5892, 0.4670, 0.4471, 0.3706, 0.3523, 0.3608, 0.3034, 0.3091, 0.3827, 0.4199, 0.3682, 0.3527, 0.4161, 0.4826, 0.5533, 0.6106, 0.6812, 0.7619, 0.8650, 1.0141, 1.1761, 1.2398, 1.2605, 1.2701, 1.2688, 1.2652, 1.2638, 1.2477, 1.2420, 1.2275, 1.2221, 1.1955, 1.1694, 1.1448, 1.1119, 1.0785, 1.0409, 1.0084, 0.9938]
