// ============================================================================
// F07 LOAD SHAPES - Real Data for 2025-07-31
// Generated from CEB metering data + disaggregation
// ============================================================================

New Loadshape.F07_Village_Center_20250731
~   npts=96  interval=0.25
~   mult=[0.8445, 0.8267, 0.8129, 0.8040, 0.7975, 0.7905, 0.7865, 0.7828, 0.7768, 0.7622, 0.7540, 0.7454, 0.7411, 0.6826, 0.6361, 0.5952, 0.5604, 0.5193, 0.4971, 0.4812, 0.4735, 0.5095, 0.5619, 0.6146, 0.6682, 0.7378, 0.8065, 0.8558, 0.8911, 0.8723, 0.8367, 0.8059, 0.8044, 0.8408, 0.7972, 0.8339, 0.8598, 0.8776, 0.9201, 0.9758, 1.0938, 1.1215, 1.0876, 1.0360, 1.0359, 0.9588, 0.9123, 0.8809, 0.8710, 0.8259, 0.8082, 0.7629, 0.7428, 0.6688, 0.6420, 0.5551, 0.5307, 0.4599, 0.4095, 0.3703, 0.3571, 0.3485, 0.3337, 0.3044, 0.3026, 0.3329, 0.3541, 0.3833, 0.4112, 0.4705, 0.5262, 0.5844, 0.6373, 0.7118, 0.8112, 0.9373, 1.1168, 1.2770, 1.3529, 1.3812, 1.4025, 1.4067, 1.4016, 1.3994, 1.4005, 1.3695, 1.3377, 1.2934, 1.2408, 1.1898, 1.1350, 1.0824, 1.0260, 0.9611, 0.9199, 0.8856]

New Loadshape.F07_Agricultural_20250731
~   npts=96  interval=0.25
~   mult=[0.2413, 0.2327, 0.2251, 0.2187, 0.2127, 0.2144, 0.2170, 0.2197, 0.2220, 0.2335, 0.2468, 0.2599, 0.2745, 0.3444, 0.4048, 0.4558, 0.5003, 0.5838, 0.6469, 0.6938, 0.7366, 0.7581, 0.8061, 0.8556, 0.9069, 0.9967, 1.0846, 1.1459, 1.1882, 1.1839, 1.1585, 1.1417, 1.1701, 1.1484, 1.0069, 0.9530, 0.8598, 0.7927, 0.7360, 0.6730, 0.6250, 0.6008, 0.5438, 0.4810, 0.4439, 0.3967, 0.3649, 0.3410, 0.3266, 0.3154, 0.3138, 0.3008, 0.2971, 0.2856, 0.2906, 0.2647, 0.2654, 0.2917, 0.3120, 0.3273, 0.3571, 0.3872, 0.4063, 0.4016, 0.4287, 0.4504, 0.4590, 0.4775, 0.4934, 0.4999, 0.4952, 0.4870, 0.4696, 0.4530, 0.4368, 0.4152, 0.3909, 0.4093, 0.3916, 0.3546, 0.3117, 0.3058, 0.2973, 0.2888, 0.2801, 0.2788, 0.2778, 0.2749, 0.2707, 0.2644, 0.2574, 0.2512, 0.2443, 0.2388, 0.2389, 0.2410]

New Loadshape.F07_Rural_Houses_20250731
~   npts=96  interval=0.25
~   mult=[0.9652, 0.9492, 0.9380, 0.9326, 0.9305, 0.9177, 0.9086, 0.8995, 0.8878, 0.8652, 0.8499, 0.8343, 0.8234, 0.7828, 0.7518, 0.7238, 0.7005, 0.6441, 0.6129, 0.5904, 0.5787, 0.6090, 0.6596, 0.7110, 0.7637, 0.7896, 0.8065, 0.7978, 0.7723, 0.7477, 0.7080, 0.6716, 0.6582, 0.6972, 0.6713, 0.7147, 0.7523, 0.7644, 0.7974, 0.8412, 0.9376, 0.9613, 0.9323, 0.8880, 0.8879, 0.8265, 0.7906, 0.7672, 0.7621, 0.7258, 0.7131, 0.6757, 0.6603, 0.5965, 0.5744, 0.4982, 0.4777, 0.4151, 0.3705, 0.3359, 0.3247, 0.3175, 0.3047, 0.2785, 0.2774, 0.3068, 0.3279, 0.3564, 0.3838, 0.4558, 0.5262, 0.6007, 0.6708, 0.7303, 0.8112, 0.9135, 1.0610, 1.2115, 1.2817, 1.3066, 1.3246, 1.3251, 1.3166, 1.3105, 1.3071, 1.2961, 1.2862, 1.2665, 1.2408, 1.2071, 1.1701, 1.1363, 1.0992, 1.0447, 1.0154, 0.9940]
