// ============================================================================
// F07 LOAD SHAPES - Real Data for 2025-05-16
// Generated from CEB metering data + disaggregation
// ============================================================================

New Loadshape.F07_Village_Center_20250516
~   npts=96  interval=0.25
~   mult=[0.7284, 0.7126, 0.6968, 0.6959, 0.6856, 0.6815, 0.6717, 0.6611, 0.6579, 0.6508, 0.6563, 0.6541, 0.6431, 0.6014, 0.5569, 0.5206, 0.4911, 0.4557, 0.4386, 0.4277, 0.4195, 0.4598, 0.5068, 0.5627, 0.6070, 0.6852, 0.7425, 0.7692, 0.7886, 0.7606, 0.7035, 0.6744, 0.6818, 0.7283, 0.7519, 0.8029, 0.8310, 0.8064, 0.7717, 0.7974, 0.8815, 0.9296, 0.8643, 1.1017, 1.4275, 1.4308, 1.4620, 1.4251, 1.4267, 1.3624, 1.2683, 1.1967, 1.0715, 0.9553, 0.8005, 0.7223, 0.7113, 0.5743, 0.5306, 0.5354, 0.4846, 0.3734, 0.3679, 0.3398, 0.3259, 0.2820, 0.3132, 0.3432, 0.3221, 0.3489, 0.4236, 0.4917, 0.5466, 0.6198, 0.7217, 0.8696, 1.0558, 1.1427, 1.2810, 1.3267, 1.3434, 1.3328, 1.3379, 1.3298, 1.3172, 1.2908, 1.2646, 1.2274, 1.1790, 1.1373, 1.0867, 1.0484, 0.9974, 0.9442, 0.8829, 0.8372]

New Loadshape.F07_Agricultural_20250516
~   npts=96  interval=0.25
~   mult=[0.2081, 0.2006, 0.1930, 0.1893, 0.1828, 0.1848, 0.1853, 0.1856, 0.1880, 0.1993, 0.2148, 0.2280, 0.2382, 0.3034, 0.3544, 0.3987, 0.4385, 0.5123, 0.5708, 0.6167, 0.6526, 0.6841, 0.7271, 0.7833, 0.8238, 0.9256, 0.9985, 1.0299, 1.0515, 1.0322, 0.9741, 0.9554, 0.9917, 0.9948, 0.9497, 0.9176, 0.8310, 0.7283, 0.6174, 0.5499, 0.5037, 0.4980, 0.4321, 0.5115, 0.6118, 0.5921, 0.5848, 0.5517, 0.5350, 0.5202, 0.4924, 0.4718, 0.4286, 0.4080, 0.3623, 0.3445, 0.3557, 0.3642, 0.4043, 0.4732, 0.4846, 0.4149, 0.4478, 0.4482, 0.4617, 0.3815, 0.4060, 0.4275, 0.3866, 0.3707, 0.3987, 0.4097, 0.4027, 0.3944, 0.3886, 0.3852, 0.3695, 0.3663, 0.3708, 0.3406, 0.2985, 0.2897, 0.2838, 0.2744, 0.2634, 0.2628, 0.2626, 0.2608, 0.2572, 0.2527, 0.2465, 0.2433, 0.2375, 0.2346, 0.2293, 0.2278]

New Loadshape.F07_Rural_Houses_20250516
~   npts=96  interval=0.25
~   mult=[0.8325, 0.8182, 0.8040, 0.8072, 0.7998, 0.7912, 0.7760, 0.7597, 0.7519, 0.7387, 0.7399, 0.7321, 0.7146, 0.6897, 0.6581, 0.6332, 0.6139, 0.5652, 0.5407, 0.5248, 0.5127, 0.5495, 0.5949, 0.6509, 0.6938, 0.7332, 0.7425, 0.7170, 0.6835, 0.6519, 0.5953, 0.5620, 0.5578, 0.6040, 0.6331, 0.6882, 0.7271, 0.7023, 0.6688, 0.6874, 0.7556, 0.7968, 0.7408, 0.9443, 1.2235, 1.2335, 1.2670, 1.2412, 1.2483, 1.1972, 1.1191, 1.0599, 0.9525, 0.8521, 0.7162, 0.6482, 0.6402, 0.5182, 0.4801, 0.4856, 0.4405, 0.3402, 0.3359, 0.3108, 0.2987, 0.2599, 0.2900, 0.3191, 0.3007, 0.3380, 0.4236, 0.5053, 0.5754, 0.6358, 0.7217, 0.8475, 1.0030, 1.0841, 1.2135, 1.2550, 1.2687, 1.2555, 1.2568, 1.2454, 1.2294, 1.2216, 1.2159, 1.2018, 1.1790, 1.1538, 1.1203, 1.1005, 1.0687, 1.0264, 0.9747, 0.9398]
