// ============================================================================
// F07 LOAD SHAPES - Real Data for 2025-07-09
// Generated from CEB metering data + disaggregation
// ============================================================================

New Loadshape.F07_Village_Center_20250709
~   npts=96  interval=0.25
~   mult=[0.8519, 0.8332, 0.8208, 0.8098, 0.8026, 0.7971, 0.7946, 0.7898, 0.7770, 0.7682, 0.7556, 0.7461, 0.7346, 0.6805, 0.6346, 0.5956, 0.5619, 0.5221, 0.4987, 0.4865, 0.4777, 0.5192, 0.5690, 0.6198, 0.6667, 0.7226, 0.7769, 0.8149, 0.8199, 0.7800, 0.7572, 0.7653, 0.7685, 0.7760, 0.7976, 0.8184, 0.8490, 0.8778, 0.9030, 0.9362, 1.0363, 1.0278, 1.0237, 1.0787, 1.1393, 1.1034, 1.0440, 0.9807, 0.9582, 0.8771, 0.8285, 0.8361, 0.8070, 0.6657, 0.6613, 0.5759, 0.5034, 0.4568, 0.4083, 0.3674, 0.3428, 0.3271, 0.3099, 0.2983, 0.2950, 0.3450, 0.4048, 0.3701, 0.3929, 0.4456, 0.4973, 0.5447, 0.5886, 0.6666, 0.7820, 0.8892, 1.0295, 1.1999, 1.2983, 1.3232, 1.3606, 1.3556, 1.3536, 1.3495, 1.3401, 1.3142, 1.2721, 1.2363, 1.1849, 1.1415, 1.0909, 1.0381, 0.9897, 0.9540, 0.9054, 0.8754]

New Loadshape.F07_Agricultural_20250709
~   npts=96  interval=0.25
~   mult=[0.2434, 0.2345, 0.2273, 0.2203, 0.2140, 0.2162, 0.2192, 0.2217, 0.2220, 0.2353, 0.2473, 0.2601, 0.2721, 0.3434, 0.4038, 0.4561, 0.5017, 0.5868, 0.6490, 0.7014, 0.7431, 0.7725, 0.8164, 0.8629, 0.9048, 0.9761, 1.0449, 1.0911, 1.0933, 1.0585, 1.0484, 1.0842, 1.1178, 1.0598, 1.0074, 0.9353, 0.8490, 0.7928, 0.7224, 0.6457, 0.5921, 0.5506, 0.5118, 0.5008, 0.4883, 0.4566, 0.4176, 0.3796, 0.3593, 0.3349, 0.3216, 0.3297, 0.3228, 0.2843, 0.2993, 0.2747, 0.2517, 0.2897, 0.3111, 0.3247, 0.3428, 0.3635, 0.3773, 0.3935, 0.4179, 0.4668, 0.5248, 0.4610, 0.4715, 0.4734, 0.4680, 0.4539, 0.4337, 0.4242, 0.4211, 0.3939, 0.3603, 0.3846, 0.3758, 0.3397, 0.3024, 0.2947, 0.2871, 0.2785, 0.2680, 0.2675, 0.2642, 0.2627, 0.2585, 0.2537, 0.2474, 0.2409, 0.2356, 0.2370, 0.2352, 0.2382]

New Loadshape.F07_Rural_Houses_20250709
~   npts=96  interval=0.25
~   mult=[0.9736, 0.9567, 0.9470, 0.9394, 0.9363, 0.9255, 0.9178, 0.9076, 0.8880, 0.8720, 0.8518, 0.8350, 0.8162, 0.7803, 0.7500, 0.7243, 0.7023, 0.6475, 0.6148, 0.5969, 0.5838, 0.6205, 0.6680, 0.7170, 0.7620, 0.7733, 0.7769, 0.7596, 0.7106, 0.6685, 0.6407, 0.6378, 0.6288, 0.6435, 0.6716, 0.7015, 0.7429, 0.7645, 0.7826, 0.8071, 0.8882, 0.8809, 0.8774, 0.9246, 0.9766, 0.9512, 0.9048, 0.8542, 0.8384, 0.7708, 0.7310, 0.7406, 0.7174, 0.5937, 0.5917, 0.5168, 0.4531, 0.4122, 0.3695, 0.3332, 0.3116, 0.2981, 0.2830, 0.2729, 0.2704, 0.3180, 0.3748, 0.3441, 0.3667, 0.4317, 0.4973, 0.5598, 0.6196, 0.6839, 0.7820, 0.8667, 0.9780, 1.1384, 1.2299, 1.2517, 1.2850, 1.2770, 1.2716, 1.2638, 1.2507, 1.2438, 1.2231, 1.2105, 1.1849, 1.1580, 1.1246, 1.0897, 1.0604, 1.0369, 0.9995, 0.9826]
