// ============================================================================
// F07 LOAD SHAPES - Real Data for 2025-06-20
// Generated from CEB metering data + disaggregation
// ============================================================================

New Loadshape.F07_Village_Center_20250620
~   npts=96  interval=0.25
~   mult=[0.6492, 0.6369, 0.6279, 0.6225, 0.6196, 0.6188, 0.6161, 0.6052, 0.6059, 0.5952, 0.5865, 0.5823, 0.5768, 0.5349, 0.4972, 0.4652, 0.4352, 0.4063, 0.3918, 0.3834, 0.3836, 0.4307, 0.4886, 0.5486, 0.6028, 0.6710, 0.7251, 0.7704, 0.8003, 0.7864, 0.7688, 0.7539, 0.7523, 0.7701, 0.7936, 0.8348, 0.9113, 0.9298, 0.9677, 0.9869, 1.0685, 1.0537, 1.0606, 1.0724, 1.1301, 1.0718, 1.0448, 0.9675, 0.9743, 0.9338, 0.8820, 0.8119, 0.7644, 0.7047, 0.6408, 0.5898, 0.5304, 0.4594, 0.4059, 0.3713, 0.3442, 0.3034, 0.2819, 0.2675, 0.2579, 0.2626, 0.2739, 0.2804, 0.2926, 0.3464, 0.3951, 0.4513, 0.4839, 0.5503, 0.6223, 0.7261, 0.8265, 0.9705, 1.0315, 1.0663, 1.0847, 1.0886, 1.0859, 1.0726, 1.0721, 1.0483, 1.0239, 0.9906, 0.9422, 0.9065, 0.8718, 0.8031, 0.6741, 0.6454, 0.6279, 0.6068]

New Loadshape.F07_Agricultural_20250620
~   npts=96  interval=0.25
~   mult=[0.1855, 0.1793, 0.1739, 0.1693, 0.1652, 0.1678, 0.1700, 0.1699, 0.1731, 0.1823, 0.1920, 0.2030, 0.2136, 0.2699, 0.3164, 0.3562, 0.3886, 0.4567, 0.5098, 0.5528, 0.5968, 0.6409, 0.7011, 0.7638, 0.8180, 0.9064, 0.9751, 1.0316, 1.0671, 1.0673, 1.0645, 1.0681, 1.0943, 1.0519, 1.0024, 0.9540, 0.9113, 0.8398, 0.7742, 0.6806, 0.6106, 0.5645, 0.5303, 0.4979, 0.4843, 0.4435, 0.4179, 0.3745, 0.3654, 0.3565, 0.3424, 0.3201, 0.3058, 0.3009, 0.2900, 0.2813, 0.2652, 0.2913, 0.3092, 0.3281, 0.3442, 0.3371, 0.3432, 0.3529, 0.3653, 0.3553, 0.3551, 0.3492, 0.3511, 0.3681, 0.3718, 0.3761, 0.3566, 0.3502, 0.3351, 0.3217, 0.2893, 0.3111, 0.2986, 0.2738, 0.2410, 0.2366, 0.2303, 0.2213, 0.2144, 0.2134, 0.2127, 0.2105, 0.2056, 0.2015, 0.1977, 0.1864, 0.1605, 0.1603, 0.1631, 0.1651]

New Loadshape.F07_Rural_Houses_20250620
~   npts=96  interval=0.25
~   mult=[0.7420, 0.7313, 0.7246, 0.7221, 0.7228, 0.7185, 0.7117, 0.6954, 0.6925, 0.6757, 0.6612, 0.6518, 0.6409, 0.6134, 0.5877, 0.5658, 0.5440, 0.5039, 0.4830, 0.4704, 0.4689, 0.5148, 0.5736, 0.6347, 0.6889, 0.7180, 0.7251, 0.7182, 0.6936, 0.6741, 0.6505, 0.6283, 0.6155, 0.6386, 0.6683, 0.7155, 0.7974, 0.8098, 0.8387, 0.8508, 0.9158, 0.9031, 0.9091, 0.9192, 0.9686, 0.9240, 0.9055, 0.8427, 0.8525, 0.8206, 0.7783, 0.7191, 0.6795, 0.6285, 0.5733, 0.5293, 0.4773, 0.4146, 0.3672, 0.3367, 0.3129, 0.2764, 0.2574, 0.2447, 0.2364, 0.2420, 0.2536, 0.2607, 0.2731, 0.3356, 0.3951, 0.4639, 0.5094, 0.5646, 0.6223, 0.7077, 0.7852, 0.9207, 0.9772, 1.0087, 1.0244, 1.0255, 1.0201, 1.0045, 1.0006, 0.9922, 0.9845, 0.9700, 0.9422, 0.9197, 0.8988, 0.8431, 0.7223, 0.7015, 0.6931, 0.6811]
