// ============================================================================
// F07 LOAD SHAPES - Real Data for 2025-05-07
// Generated from CEB metering data + disaggregation
// ============================================================================

New Loadshape.F07_Village_Center_20250507
~   npts=96  interval=0.25
~   mult=[0.7523, 0.7261, 0.7063, 0.7032, 0.6946, 0.6858, 0.6894, 0.6845, 0.6784, 0.6705, 0.6591, 0.6529, 0.6457, 0.5954, 0.5529, 0.5146, 0.4795, 0.4443, 0.4252, 0.4095, 0.3993, 0.4422, 0.4925, 0.5437, 0.5893, 0.6413, 0.6888, 0.7237, 0.7444, 0.7566, 0.7525, 0.7401, 0.7399, 0.7384, 0.7915, 0.8179, 0.8308, 0.7972, 0.7971, 0.8800, 0.9220, 0.9200, 0.9641, 0.9579, 0.9803, 0.9456, 0.8993, 0.9061, 0.8603, 0.7871, 0.8121, 0.7067, 0.6541, 0.5806, 0.5491, 0.6122, 0.5526, 0.4247, 0.3417, 0.3024, 0.2751, 0.2679, 0.2681, 0.2436, 0.2323, 0.2704, 0.3321, 0.3504, 0.3591, 0.4086, 0.4506, 0.4669, 0.4843, 0.5645, 0.6542, 0.7816, 0.9615, 1.0509, 1.0789, 1.0975, 1.1199, 1.1198, 1.1195, 1.1195, 1.1119, 1.0786, 1.0475, 1.0175, 0.9828, 0.9495, 0.9104, 0.8726, 0.8308, 0.7907, 0.7662, 0.7555]

New Loadshape.F07_Agricultural_20250507
~   npts=96  interval=0.25
~   mult=[0.2149, 0.2044, 0.1956, 0.1913, 0.1852, 0.1860, 0.1902, 0.1922, 0.1938, 0.2054, 0.2157, 0.2276, 0.2392, 0.3004, 0.3519, 0.3940, 0.4282, 0.4995, 0.5533, 0.5904, 0.6211, 0.6579, 0.7066, 0.7569, 0.7998, 0.8664, 0.9264, 0.9690, 0.9925, 1.0269, 1.0419, 1.0485, 1.0763, 1.0085, 0.9998, 0.9348, 0.8308, 0.7201, 0.6377, 0.6069, 0.5268, 0.4929, 0.4820, 0.4447, 0.4201, 0.3913, 0.3597, 0.3508, 0.3226, 0.3005, 0.3153, 0.2787, 0.2617, 0.2479, 0.2485, 0.2919, 0.2763, 0.2693, 0.2603, 0.2672, 0.2751, 0.2977, 0.3264, 0.3213, 0.3290, 0.3658, 0.4305, 0.4365, 0.4309, 0.4341, 0.4241, 0.3891, 0.3569, 0.3592, 0.3523, 0.3463, 0.3365, 0.3368, 0.3123, 0.2818, 0.2489, 0.2434, 0.2375, 0.2310, 0.2224, 0.2196, 0.2176, 0.2162, 0.2144, 0.2110, 0.2065, 0.2025, 0.1978, 0.1965, 0.1990, 0.2056]

New Loadshape.F07_Rural_Houses_20250507
~   npts=96  interval=0.25
~   mult=[0.8598, 0.8337, 0.8150, 0.8157, 0.8104, 0.7963, 0.7964, 0.7866, 0.7754, 0.7611, 0.7430, 0.7308, 0.7175, 0.6828, 0.6535, 0.6258, 0.5994, 0.5511, 0.5242, 0.5024, 0.4880, 0.5285, 0.5782, 0.6289, 0.6735, 0.6863, 0.6888, 0.6746, 0.6451, 0.6485, 0.6367, 0.6168, 0.6054, 0.6123, 0.6665, 0.7011, 0.7269, 0.6944, 0.6908, 0.7587, 0.7903, 0.7886, 0.8264, 0.8211, 0.8403, 0.8152, 0.7794, 0.7892, 0.7527, 0.6917, 0.7166, 0.6260, 0.5815, 0.5178, 0.4913, 0.5494, 0.4973, 0.3833, 0.3091, 0.2742, 0.2501, 0.2441, 0.2448, 0.2228, 0.2129, 0.2492, 0.3075, 0.3258, 0.3351, 0.3958, 0.4506, 0.4798, 0.5098, 0.5792, 0.6542, 0.7618, 0.9134, 0.9970, 1.0221, 1.0382, 1.0577, 1.0549, 1.0517, 1.0484, 1.0378, 1.0208, 1.0072, 0.9963, 0.9829, 0.9632, 0.9385, 0.9160, 0.8902, 0.8595, 0.8458, 0.8480]
