// ============================================================================
// F08 LOAD SHAPES - Real Data for 2025-06-04
// Generated from CEB metering data + disaggregation
// ============================================================================

New Loadshape.F08_Commercial_20250604
~   npts=96  interval=0.25
~   mult=[0.3536, 0.3399, 0.3259, 0.3115, 0.2990, 0.2998, 0.2991, 0.2978, 0.3013, 0.3022, 0.3021, 0.3004, 0.3014, 0.2994, 0.2947, 0.2917, 0.2882, 0.2767, 0.2678, 0.2617, 0.2583, 0.2801, 0.3026, 0.3262, 0.3478, 0.3974, 0.4406, 0.4688, 0.4869, 0.5241, 0.5533, 0.5810, 0.6201, 0.6138, 0.6308, 0.6351, 0.6869, 0.6933, 0.7071, 0.6814, 0.7093, 0.6923, 0.6638, 0.5968, 0.5970, 0.6028, 0.5290, 0.5049, 0.4563, 0.4181, 0.4007, 0.3871, 0.3840, 0.3734, 0.3234, 0.3235, 0.2749, 0.2713, 0.2860, 0.2959, 0.3112, 0.3314, 0.3564, 0.3812, 0.4050, 0.4213, 0.4436, 0.4643, 0.4748, 0.4725, 0.4571, 0.4499, 0.4369, 0.4252, 0.4206, 0.4165, 0.4114, 0.4253, 0.4125, 0.3880, 0.3630, 0.3607, 0.3573, 0.3565, 0.3583, 0.3629, 0.3684, 0.3755, 0.3785, 0.3799, 0.3742, 0.3738, 0.3711, 0.3615, 0.3544, 0.3501]

New Loadshape.F08_Residential_20250604
~   npts=96  interval=0.25
~   mult=[0.6187, 0.6119, 0.6053, 0.5990, 0.5980, 0.5896, 0.5782, 0.5659, 0.5623, 0.5591, 0.5539, 0.5458, 0.5425, 0.5438, 0.5403, 0.5397, 0.5380, 0.5492, 0.5586, 0.5688, 0.5812, 0.6045, 0.6327, 0.6655, 0.6956, 0.7078, 0.7098, 0.6915, 0.6639, 0.5990, 0.5328, 0.4727, 0.4263, 0.3756, 0.3424, 0.3045, 0.2892, 0.2791, 0.2720, 0.2501, 0.2482, 0.2454, 0.2383, 0.2170, 0.2199, 0.2331, 0.2144, 0.2144, 0.2028, 0.1916, 0.1892, 0.1882, 0.1920, 0.1946, 0.1756, 0.1829, 0.1617, 0.1660, 0.1820, 0.1958, 0.2140, 0.2295, 0.2484, 0.2674, 0.2859, 0.3114, 0.3422, 0.3728, 0.3956, 0.4382, 0.4710, 0.5142, 0.5534, 0.5953, 0.6562, 0.7312, 0.8228, 0.8965, 0.9220, 0.9263, 0.9335, 0.9219, 0.9070, 0.8984, 0.8958, 0.8836, 0.8708, 0.8582, 0.8326, 0.8106, 0.7722, 0.7435, 0.7085, 0.6767, 0.6497, 0.6276]

New Loadshape.F08_Mixed_20250604
~   npts=96  interval=0.25
~   mult=[0.6187, 0.6119, 0.6053, 0.5990, 0.5980, 0.5896, 0.5782, 0.5659, 0.5623, 0.5591, 0.5539, 0.5458, 0.5425, 0.5438, 0.5403, 0.5397, 0.5380, 0.5492, 0.5586, 0.5688, 0.5812, 0.6045, 0.6327, 0.6655, 0.6956, 0.7078, 0.7098, 0.6915, 0.6639, 0.5990, 0.5328, 0.4727, 0.4263, 0.3756, 0.3424, 0.3045, 0.2892, 0.2791, 0.2720, 0.2501, 0.2482, 0.2454, 0.2383, 0.2170, 0.2199, 0.2331, 0.2144, 0.2144, 0.2028, 0.1916, 0.1892, 0.1882, 0.1920, 0.1946, 0.1756, 0.1829, 0.1617, 0.1660, 0.1820, 0.1958, 0.2140, 0.2295, 0.2484, 0.2674, 0.2859, 0.3114, 0.3422, 0.3728, 0.3956, 0.4382, 0.4710, 0.5142, 0.5534, 0.5953, 0.6562, 0.7312, 0.8228, 0.8965, 0.9220, 0.9263, 0.9335, 0.9219, 0.9070, 0.8984, 0.8958, 0.8836, 0.8708, 0.8582, 0.8326, 0.8106, 0.7722, 0.7435, 0.7085, 0.6767, 0.6497, 0.6276]
