// ============================================================================
// F08 LOAD SHAPES - Real Data for 2025-08-14
// Generated from CEB metering data + disaggregation
// ============================================================================

New Loadshape.F08_Commercial_20250814
~   npts=96  interval=0.25
~   mult=[0.3158, 0.3019, 0.2904, 0.2784, 0.2663, 0.2632, 0.2610, 0.2598, 0.2611, 0.2608, 0.2599, 0.2611, 0.2628, 0.2595, 0.2551, 0.2524, 0.2502, 0.2384, 0.2314, 0.2260, 0.2213, 0.2363, 0.2520, 0.2669, 0.2847, 0.3206, 0.3610, 0.3916, 0.4172, 0.4619, 0.5076, 0.5405, 0.5884, 0.5492, 0.5812, 0.5747, 0.5538, 0.4411, 0.4152, 0.3881, 0.4344, 0.4267, 0.5019, 0.5016, 0.5602, 0.3162, 0.3342, 0.3028, 0.2760, 0.2344, 0.2137, 0.2671, 0.3260, 0.2560, 0.3879, 0.2146, 0.3073, 0.1446, 0.1638, 0.1512, 0.1596, 0.2479, 0.3230, 0.4257, 0.4738, 0.5238, 0.5020, 0.5120, 0.4690, 0.4334, 0.4223, 0.3810, 0.3678, 0.3792, 0.3868, 0.3936, 0.3950, 0.4058, 0.3929, 0.3716, 0.3455, 0.3448, 0.3408, 0.3387, 0.3367, 0.3421, 0.3414, 0.3442, 0.3430, 0.3436, 0.3403, 0.3390, 0.3373, 0.3297, 0.3243, 0.3216]

New Loadshape.F08_Residential_20250814
~   npts=96  interval=0.25
~   mult=[0.5527, 0.5435, 0.5392, 0.5353, 0.5327, 0.5176, 0.5046, 0.4936, 0.4874, 0.4824, 0.4764, 0.4743, 0.4731, 0.4714, 0.4677, 0.4669, 0.4670, 0.4731, 0.4826, 0.4911, 0.4979, 0.5100, 0.5270, 0.5445, 0.5693, 0.5710, 0.5816, 0.5776, 0.5689, 0.5279, 0.4888, 0.4398, 0.4045, 0.3361, 0.3155, 0.2755, 0.2332, 0.1776, 0.1597, 0.1425, 0.1521, 0.1512, 0.1802, 0.1824, 0.2064, 0.1223, 0.1355, 0.1286, 0.1227, 0.1074, 0.1009, 0.1298, 0.1630, 0.1334, 0.2106, 0.1213, 0.1808, 0.0885, 0.1042, 0.1000, 0.1097, 0.1716, 0.2251, 0.2986, 0.3344, 0.3872, 0.3872, 0.4111, 0.3909, 0.4020, 0.4351, 0.4354, 0.4659, 0.5308, 0.6034, 0.6910, 0.7901, 0.8554, 0.8783, 0.8871, 0.8885, 0.8811, 0.8652, 0.8535, 0.8417, 0.8329, 0.8070, 0.7867, 0.7546, 0.7332, 0.7024, 0.6743, 0.6439, 0.6173, 0.5945, 0.5766]

New Loadshape.F08_Mixed_20250814
~   npts=96  interval=0.25
~   mult=[0.5527, 0.5435, 0.5392, 0.5353, 0.5327, 0.5176, 0.5046, 0.4936, 0.4874, 0.4824, 0.4764, 0.4743, 0.4731, 0.4714, 0.4677, 0.4669, 0.4670, 0.4731, 0.4826, 0.4911, 0.4979, 0.5100, 0.5270, 0.5445, 0.5693, 0.5710, 0.5816, 0.5776, 0.5689, 0.5279, 0.4888, 0.4398, 0.4045, 0.3361, 0.3155, 0.2755, 0.2332, 0.1776, 0.1597, 0.1425, 0.1521, 0.1512, 0.1802, 0.1824, 0.2064, 0.1223, 0.1355, 0.1286, 0.1227, 0.1074, 0.1009, 0.1298, 0.1630, 0.1334, 0.2106, 0.1213, 0.1808, 0.0885, 0.1042, 0.1000, 0.1097, 0.1716, 0.2251, 0.2986, 0.3344, 0.3872, 0.3872, 0.4111, 0.3909, 0.4020, 0.4351, 0.4354, 0.4659, 0.5308, 0.6034, 0.6910, 0.7901, 0.8554, 0.8783, 0.8871, 0.8885, 0.8811, 0.8652, 0.8535, 0.8417, 0.8329, 0.8070, 0.7867, 0.7546, 0.7332, 0.7024, 0.6743, 0.6439, 0.6173, 0.5945, 0.5766]
