// ============================================================================
// F08 LOAD SHAPES - Real Data for 2025-06-23
// Generated from CEB metering data + disaggregation
// ============================================================================

New Loadshape.F08_Commercial_20250623
~   npts=96  interval=0.25
~   mult=[0.3224, 0.3094, 0.2987, 0.2880, 0.2767, 0.2787, 0.2803, 0.2819, 0.2809, 0.2823, 0.2826, 0.2823, 0.2805, 0.2776, 0.2746, 0.2697, 0.2695, 0.2575, 0.2500, 0.2478, 0.2436, 0.2582, 0.2770, 0.3004, 0.3159, 0.3547, 0.3995, 0.4345, 0.4548, 0.4766, 0.4933, 0.5134, 0.5609, 0.5668, 0.6252, 0.6629, 0.7665, 0.8342, 0.8661, 0.8486, 0.8341, 0.8057, 0.7387, 0.6104, 0.5807, 0.6085, 0.7218, 0.7395, 0.7085, 0.6372, 0.5326, 0.5112, 0.5254, 0.5737, 0.6144, 0.5856, 0.5385, 0.5019, 0.5173, 0.5407, 0.5482, 0.5461, 0.5741, 0.5691, 0.5623, 0.5510, 0.4955, 0.4581, 0.4736, 0.4416, 0.4212, 0.4221, 0.4157, 0.4111, 0.4182, 0.4165, 0.4099, 0.4243, 0.4111, 0.3932, 0.3708, 0.3722, 0.3676, 0.3660, 0.3604, 0.3621, 0.3645, 0.3697, 0.3715, 0.3728, 0.3674, 0.3669, 0.3650, 0.3578, 0.3496, 0.3463]

New Loadshape.F08_Residential_20250623
~   npts=96  interval=0.25
~   mult=[0.5642, 0.5570, 0.5548, 0.5539, 0.5535, 0.5482, 0.5419, 0.5356, 0.5244, 0.5222, 0.5180, 0.5129, 0.5049, 0.5042, 0.5035, 0.4989, 0.5030, 0.5110, 0.5213, 0.5386, 0.5481, 0.5572, 0.5792, 0.6128, 0.6318, 0.6318, 0.6437, 0.6409, 0.6202, 0.5446, 0.4750, 0.4177, 0.3856, 0.3469, 0.3394, 0.3178, 0.3227, 0.3358, 0.3331, 0.3115, 0.2919, 0.2856, 0.2652, 0.2220, 0.2139, 0.2353, 0.2926, 0.3140, 0.3149, 0.2920, 0.2515, 0.2485, 0.2627, 0.2990, 0.3335, 0.3310, 0.3168, 0.3072, 0.3292, 0.3577, 0.3769, 0.3781, 0.4002, 0.3992, 0.3969, 0.4073, 0.3823, 0.3677, 0.3947, 0.4096, 0.4339, 0.4824, 0.5265, 0.5756, 0.6525, 0.7312, 0.8198, 0.8945, 0.9190, 0.9387, 0.9534, 0.9512, 0.9332, 0.9224, 0.9010, 0.8815, 0.8615, 0.8450, 0.8174, 0.7955, 0.7583, 0.7297, 0.6967, 0.6699, 0.6410, 0.6208]

New Loadshape.F08_Mixed_20250623
~   npts=96  interval=0.25
~   mult=[0.5642, 0.5570, 0.5548, 0.5539, 0.5535, 0.5482, 0.5419, 0.5356, 0.5244, 0.5222, 0.5180, 0.5129, 0.5049, 0.5042, 0.5035, 0.4989, 0.5030, 0.5110, 0.5213, 0.5386, 0.5481, 0.5572, 0.5792, 0.6128, 0.6318, 0.6318, 0.6437, 0.6409, 0.6202, 0.5446, 0.4750, 0.4177, 0.3856, 0.3469, 0.3394, 0.3178, 0.3227, 0.3358, 0.3331, 0.3115, 0.2919, 0.2856, 0.2652, 0.2220, 0.2139, 0.2353, 0.2926, 0.3140, 0.3149, 0.2920, 0.2515, 0.2485, 0.2627, 0.2990, 0.3335, 0.3310, 0.3168, 0.3072, 0.3292, 0.3577, 0.3769, 0.3781, 0.4002, 0.3992, 0.3969, 0.4073, 0.3823, 0.3677, 0.3947, 0.4096, 0.4339, 0.4824, 0.5265, 0.5756, 0.6525, 0.7312, 0.8198, 0.8945, 0.9190, 0.9387, 0.9534, 0.9512, 0.9332, 0.9224, 0.9010, 0.8815, 0.8615, 0.8450, 0.8174, 0.7955, 0.7583, 0.7297, 0.6967, 0.6699, 0.6410, 0.6208]
