// ============================================================================
// F08 LOAD SHAPES - Real Data for 2025-06-20
// Generated from CEB metering data + disaggregation
// ============================================================================

New Loadshape.F08_Commercial_20250620
~   npts=96  interval=0.25
~   mult=[0.3415, 0.3266, 0.3139, 0.2998, 0.2871, 0.2888, 0.2889, 0.2876, 0.2898, 0.2886, 0.2879, 0.2877, 0.2885, 0.2813, 0.2783, 0.2760, 0.2736, 0.2612, 0.2537, 0.2485, 0.2444, 0.2642, 0.2923, 0.3151, 0.3348, 0.3790, 0.4157, 0.4523, 0.4839, 0.5172, 0.5473, 0.5799, 0.6218, 0.6544, 0.6676, 0.6606, 0.6753, 0.6333, 0.6287, 0.5941, 0.5790, 0.5571, 0.5743, 0.6002, 0.5784, 0.5135, 0.4815, 0.4966, 0.3689, 0.3230, 0.2887, 0.2702, 0.2658, 0.2520, 0.2220, 0.2307, 0.2200, 0.2184, 0.2339, 0.2468, 0.2571, 0.2757, 0.2961, 0.3184, 0.3483, 0.3742, 0.3964, 0.4107, 0.4299, 0.4284, 0.4327, 0.4377, 0.4259, 0.4066, 0.3999, 0.4002, 0.3980, 0.4120, 0.4034, 0.3807, 0.3545, 0.3542, 0.3528, 0.3499, 0.3483, 0.3531, 0.3597, 0.3648, 0.3669, 0.3671, 0.3660, 0.3654, 0.3603, 0.3531, 0.3460, 0.3410]

New Loadshape.F08_Residential_20250620
~   npts=96  interval=0.25
~   mult=[0.5977, 0.5878, 0.5830, 0.5765, 0.5743, 0.5679, 0.5586, 0.5463, 0.5409, 0.5338, 0.5277, 0.5226, 0.5194, 0.5110, 0.5103, 0.5105, 0.5108, 0.5184, 0.5292, 0.5400, 0.5499, 0.5702, 0.6113, 0.6428, 0.6696, 0.6751, 0.6698, 0.6672, 0.6599, 0.5911, 0.5270, 0.4717, 0.4275, 0.4004, 0.3624, 0.3167, 0.2843, 0.2550, 0.2418, 0.2181, 0.2026, 0.1975, 0.2062, 0.2183, 0.2131, 0.1985, 0.1952, 0.2109, 0.1639, 0.1480, 0.1363, 0.1314, 0.1329, 0.1313, 0.1205, 0.1304, 0.1294, 0.1336, 0.1489, 0.1633, 0.1767, 0.1909, 0.2064, 0.2234, 0.2458, 0.2766, 0.3058, 0.3297, 0.3583, 0.3974, 0.4458, 0.5003, 0.5395, 0.5693, 0.6238, 0.7025, 0.7960, 0.8684, 0.9017, 0.9088, 0.9115, 0.9051, 0.8955, 0.8817, 0.8708, 0.8598, 0.8502, 0.8337, 0.8073, 0.7835, 0.7553, 0.7267, 0.6879, 0.6611, 0.6342, 0.6112]

New Loadshape.F08_Mixed_20250620
~   npts=96  interval=0.25
~   mult=[0.5977, 0.5878, 0.5830, 0.5765, 0.5743, 0.5679, 0.5586, 0.5463, 0.5409, 0.5338, 0.5277, 0.5226, 0.5194, 0.5110, 0.5103, 0.5105, 0.5108, 0.5184, 0.5292, 0.5400, 0.5499, 0.5702, 0.6113, 0.6428, 0.6696, 0.6751, 0.6698, 0.6672, 0.6599, 0.5911, 0.5270, 0.4717, 0.4275, 0.4004, 0.3624, 0.3167, 0.2843, 0.2550, 0.2418, 0.2181, 0.2026, 0.1975, 0.2062, 0.2183, 0.2131, 0.1985, 0.1952, 0.2109, 0.1639, 0.1480, 0.1363, 0.1314, 0.1329, 0.1313, 0.1205, 0.1304, 0.1294, 0.1336, 0.1489, 0.1633, 0.1767, 0.1909, 0.2064, 0.2234, 0.2458, 0.2766, 0.3058, 0.3297, 0.3583, 0.3974, 0.4458, 0.5003, 0.5395, 0.5693, 0.6238, 0.7025, 0.7960, 0.8684, 0.9017, 0.9088, 0.9115, 0.9051, 0.8955, 0.8817, 0.8708, 0.8598, 0.8502, 0.8337, 0.8073, 0.7835, 0.7553, 0.7267, 0.6879, 0.6611, 0.6342, 0.6112]
