// ============================================================================
// F08 LOAD SHAPES - Real Data for 2025-06-13
// Generated from CEB metering data + disaggregation
// ============================================================================

New Loadshape.F08_Commercial_20250613
~   npts=96  interval=0.25
~   mult=[0.3344, 0.3185, 0.3071, 0.2942, 0.2812, 0.2807, 0.2818, 0.2824, 0.2846, 0.2849, 0.2836, 0.2855, 0.2848, 0.2786, 0.2768, 0.2728, 0.2684, 0.2573, 0.2505, 0.2473, 0.2443, 0.2639, 0.2885, 0.3091, 0.3290, 0.3730, 0.4119, 0.4443, 0.4681, 0.4617, 0.5639, 0.6040, 0.5674, 0.5471, 0.5641, 0.5688, 0.5957, 0.5900, 0.5926, 0.6080, 0.5740, 0.5454, 0.5637, 0.5340, 0.4495, 0.4459, 0.4248, 0.3606, 0.4095, 0.4198, 0.3751, 0.3292, 0.3163, 0.2099, 0.1948, 0.2200, 0.2537, 0.2687, 0.2281, 0.2288, 0.2528, 0.3402, 0.3134, 0.2481, 0.4081, 0.4794, 0.4510, 0.3873, 0.4570, 0.4108, 0.3819, 0.3741, 0.3959, 0.3990, 0.3927, 0.3925, 0.3941, 0.4053, 0.3925, 0.3746, 0.3484, 0.3476, 0.3450, 0.3428, 0.3375, 0.3404, 0.3445, 0.3469, 0.3490, 0.3506, 0.3490, 0.3455, 0.3445, 0.3396, 0.3349, 0.3318]

New Loadshape.F08_Residential_20250613
~   npts=96  interval=0.25
~   mult=[0.5852, 0.5733, 0.5703, 0.5657, 0.5624, 0.5521, 0.5449, 0.5366, 0.5312, 0.5270, 0.5200, 0.5187, 0.5126, 0.5062, 0.5074, 0.5047, 0.5010, 0.5106, 0.5226, 0.5375, 0.5496, 0.5695, 0.6033, 0.6305, 0.6580, 0.6645, 0.6637, 0.6554, 0.6383, 0.5277, 0.5430, 0.4914, 0.3901, 0.3348, 0.3062, 0.2727, 0.2508, 0.2375, 0.2279, 0.2232, 0.2009, 0.1933, 0.2023, 0.1942, 0.1656, 0.1724, 0.1722, 0.1531, 0.1820, 0.1924, 0.1771, 0.1600, 0.1581, 0.1094, 0.1058, 0.1244, 0.1492, 0.1644, 0.1452, 0.1513, 0.1738, 0.2355, 0.2184, 0.1740, 0.2881, 0.3543, 0.3479, 0.3109, 0.3808, 0.3810, 0.3935, 0.4275, 0.5014, 0.5586, 0.6127, 0.6891, 0.7881, 0.8544, 0.8773, 0.8943, 0.8958, 0.8884, 0.8757, 0.8639, 0.8438, 0.8287, 0.8142, 0.7928, 0.7678, 0.7483, 0.7204, 0.6872, 0.6576, 0.6358, 0.6139, 0.5949]

New Loadshape.F08_Mixed_20250613
~   npts=96  interval=0.25
~   mult=[0.5852, 0.5733, 0.5703, 0.5657, 0.5624, 0.5521, 0.5449, 0.5366, 0.5312, 0.5270, 0.5200, 0.5187, 0.5126, 0.5062, 0.5074, 0.5047, 0.5010, 0.5106, 0.5226, 0.5375, 0.5496, 0.5695, 0.6033, 0.6305, 0.6580, 0.6645, 0.6637, 0.6554, 0.6383, 0.5277, 0.5430, 0.4914, 0.3901, 0.3348, 0.3062, 0.2727, 0.2508, 0.2375, 0.2279, 0.2232, 0.2009, 0.1933, 0.2023, 0.1942, 0.1656, 0.1724, 0.1722, 0.1531, 0.1820, 0.1924, 0.1771, 0.1600, 0.1581, 0.1094, 0.1058, 0.1244, 0.1492, 0.1644, 0.1452, 0.1513, 0.1738, 0.2355, 0.2184, 0.1740, 0.2881, 0.3543, 0.3479, 0.3109, 0.3808, 0.3810, 0.3935, 0.4275, 0.5014, 0.5586, 0.6127, 0.6891, 0.7881, 0.8544, 0.8773, 0.8943, 0.8958, 0.8884, 0.8757, 0.8639, 0.8438, 0.8287, 0.8142, 0.7928, 0.7678, 0.7483, 0.7204, 0.6872, 0.6576, 0.6358, 0.6139, 0.5949]
