// ============================================================================
// F08 LOAD SHAPES - Real Data for 2025-07-30
// Generated from CEB metering data + disaggregation
// ============================================================================

New Loadshape.F08_Commercial_20250730
~   npts=96  interval=0.25
~   mult=[0.3470, 0.3340, 0.3217, 0.3064, 0.2921, 0.2953, 0.2965, 0.2968, 0.2976, 0.2985, 0.2989, 0.2978, 0.2950, 0.2909, 0.2905, 0.2886, 0.2835, 0.2708, 0.2637, 0.2578, 0.2554, 0.2729, 0.2960, 0.3154, 0.3357, 0.3767, 0.4289, 0.4650, 0.4856, 0.5249, 0.5501, 0.5750, 0.5998, 0.6167, 0.6389, 0.6362, 0.6546, 0.6263, 0.6119, 0.5993, 0.5847, 0.5563, 0.5269, 0.5067, 0.4918, 0.4632, 0.4392, 0.4134, 0.3919, 0.3635, 0.3336, 0.3055, 0.2917, 0.2757, 0.2545, 0.2502, 0.2374, 0.2444, 0.2652, 0.2851, 0.3021, 0.3125, 0.3229, 0.3468, 0.3744, 0.3997, 0.4222, 0.4404, 0.4483, 0.4553, 0.4560, 0.4505, 0.4410, 0.4309, 0.4236, 0.4171, 0.4129, 0.4296, 0.4216, 0.4019, 0.3761, 0.3730, 0.3701, 0.3685, 0.3683, 0.3735, 0.3762, 0.3813, 0.3858, 0.3860, 0.3848, 0.3863, 0.3829, 0.3745, 0.3660, 0.3635]

New Loadshape.F08_Residential_20250730
~   npts=96  interval=0.25
~   mult=[0.6072, 0.6013, 0.5975, 0.5892, 0.5842, 0.5807, 0.5733, 0.5639, 0.5555, 0.5523, 0.5481, 0.5409, 0.5309, 0.5284, 0.5326, 0.5338, 0.5293, 0.5375, 0.5499, 0.5602, 0.5747, 0.5888, 0.6189, 0.6435, 0.6714, 0.6711, 0.6910, 0.6859, 0.6622, 0.5999, 0.5298, 0.4678, 0.4124, 0.3774, 0.3468, 0.3050, 0.2756, 0.2521, 0.2353, 0.2200, 0.2046, 0.1972, 0.1892, 0.1843, 0.1812, 0.1791, 0.1781, 0.1755, 0.1742, 0.1666, 0.1575, 0.1485, 0.1459, 0.1437, 0.1382, 0.1414, 0.1396, 0.1495, 0.1687, 0.1886, 0.2077, 0.2163, 0.2250, 0.2433, 0.2643, 0.2954, 0.3257, 0.3535, 0.3736, 0.4223, 0.4698, 0.5148, 0.5586, 0.6033, 0.6608, 0.7322, 0.8257, 0.9056, 0.9424, 0.9593, 0.9671, 0.9533, 0.9394, 0.9286, 0.9208, 0.9095, 0.8893, 0.8715, 0.8488, 0.8237, 0.7942, 0.7683, 0.7310, 0.7010, 0.6710, 0.6516]

New Loadshape.F08_Mixed_20250730
~   npts=96  interval=0.25
~   mult=[0.6072, 0.6013, 0.5975, 0.5892, 0.5842, 0.5807, 0.5733, 0.5639, 0.5555, 0.5523, 0.5481, 0.5409, 0.5309, 0.5284, 0.5326, 0.5338, 0.5293, 0.5375, 0.5499, 0.5602, 0.5747, 0.5888, 0.6189, 0.6435, 0.6714, 0.6711, 0.6910, 0.6859, 0.6622, 0.5999, 0.5298, 0.4678, 0.4124, 0.3774, 0.3468, 0.3050, 0.2756, 0.2521, 0.2353, 0.2200, 0.2046, 0.1972, 0.1892, 0.1843, 0.1812, 0.1791, 0.1781, 0.1755, 0.1742, 0.1666, 0.1575, 0.1485, 0.1459, 0.1437, 0.1382, 0.1414, 0.1396, 0.1495, 0.1687, 0.1886, 0.2077, 0.2163, 0.2250, 0.2433, 0.2643, 0.2954, 0.3257, 0.3535, 0.3736, 0.4223, 0.4698, 0.5148, 0.5586, 0.6033, 0.6608, 0.7322, 0.8257, 0.9056, 0.9424, 0.9593, 0.9671, 0.9533, 0.9394, 0.9286, 0.9208, 0.9095, 0.8893, 0.8715, 0.8488, 0.8237, 0.7942, 0.7683, 0.7310, 0.7010, 0.6710, 0.6516]
