// ============================================================================
// F08 LOAD SHAPES - Real Data for 2025-05-13
// Generated from CEB metering data + disaggregation
// ============================================================================

New Loadshape.F08_Commercial_20250513
~   npts=96  interval=0.25
~   mult=[0.3525, 0.3351, 0.3217, 0.3095, 0.2985, 0.2998, 0.2996, 0.2978, 0.2976, 0.2985, 0.3000, 0.3004, 0.3003, 0.2978, 0.2947, 0.2912, 0.2898, 0.2774, 0.2686, 0.2613, 0.2558, 0.2743, 0.2924, 0.3120, 0.3270, 0.3648, 0.3955, 0.4206, 0.4403, 0.4960, 0.5416, 0.5772, 0.6179, 0.6127, 0.6595, 0.6853, 0.6084, 0.5981, 0.5621, 0.5976, 0.5924, 0.5641, 0.5683, 0.5363, 0.6520, 0.7127, 0.6360, 0.5605, 0.5232, 0.5015, 0.5142, 0.5380, 0.3589, 0.3365, 0.3169, 0.2839, 0.2741, 0.2796, 0.2788, 0.2857, 0.2981, 0.3268, 0.3486, 0.3634, 0.3869, 0.3954, 0.4213, 0.4445, 0.4555, 0.4579, 0.4639, 0.4410, 0.4198, 0.4086, 0.4099, 0.4242, 0.4248, 0.4258, 0.4120, 0.3902, 0.3634, 0.3624, 0.3598, 0.3577, 0.3575, 0.3604, 0.3601, 0.3665, 0.3715, 0.3747, 0.3747, 0.3708, 0.3691, 0.3646, 0.3586, 0.3528]

New Loadshape.F08_Residential_20250513
~   npts=96  interval=0.25
~   mult=[0.6168, 0.6032, 0.5975, 0.5951, 0.5970, 0.5896, 0.5792, 0.5659, 0.5555, 0.5523, 0.5500, 0.5458, 0.5406, 0.5409, 0.5403, 0.5387, 0.5409, 0.5505, 0.5603, 0.5679, 0.5755, 0.5920, 0.6114, 0.6365, 0.6540, 0.6498, 0.6372, 0.6204, 0.6005, 0.5669, 0.5215, 0.4696, 0.4248, 0.3750, 0.3580, 0.3286, 0.2562, 0.2408, 0.2162, 0.2194, 0.2073, 0.1999, 0.2040, 0.1950, 0.2402, 0.2756, 0.2578, 0.2380, 0.2325, 0.2299, 0.2428, 0.2615, 0.1795, 0.1754, 0.1720, 0.1604, 0.1612, 0.1711, 0.1774, 0.1890, 0.2050, 0.2263, 0.2429, 0.2549, 0.2731, 0.2923, 0.3250, 0.3569, 0.3796, 0.4247, 0.4779, 0.5040, 0.5317, 0.5720, 0.6395, 0.7446, 0.8495, 0.8975, 0.9210, 0.9314, 0.9346, 0.9261, 0.9133, 0.9015, 0.8938, 0.8774, 0.8512, 0.8378, 0.8174, 0.7996, 0.7732, 0.7376, 0.7046, 0.6825, 0.6575, 0.6324]

New Loadshape.F08_Mixed_20250513
~   npts=96  interval=0.25
~   mult=[0.6168, 0.6032, 0.5975, 0.5951, 0.5970, 0.5896, 0.5792, 0.5659, 0.5555, 0.5523, 0.5500, 0.5458, 0.5406, 0.5409, 0.5403, 0.5387, 0.5409, 0.5505, 0.5603, 0.5679, 0.5755, 0.5920, 0.6114, 0.6365, 0.6540, 0.6498, 0.6372, 0.6204, 0.6005, 0.5669, 0.5215, 0.4696, 0.4248, 0.3750, 0.3580, 0.3286, 0.2562, 0.2408, 0.2162, 0.2194, 0.2073, 0.1999, 0.2040, 0.1950, 0.2402, 0.2756, 0.2578, 0.2380, 0.2325, 0.2299, 0.2428, 0.2615, 0.1795, 0.1754, 0.1720, 0.1604, 0.1612, 0.1711, 0.1774, 0.1890, 0.2050, 0.2263, 0.2429, 0.2549, 0.2731, 0.2923, 0.3250, 0.3569, 0.3796, 0.4247, 0.4779, 0.5040, 0.5317, 0.5720, 0.6395, 0.7446, 0.8495, 0.8975, 0.9210, 0.9314, 0.9346, 0.9261, 0.9133, 0.9015, 0.8938, 0.8774, 0.8512, 0.8378, 0.8174, 0.7996, 0.7732, 0.7376, 0.7046, 0.6825, 0.6575, 0.6324]
