// ============================================================================
// F08 LOAD SHAPES - Real Data for 2025-06-14
// Generated from CEB metering data + disaggregation
// ============================================================================

New Loadshape.F08_Commercial_20250614
~   npts=96  interval=0.25
~   mult=[0.3295, 0.3185, 0.3061, 0.2947, 0.2822, 0.2797, 0.2808, 0.2829, 0.2851, 0.2833, 0.2842, 0.2834, 0.2848, 0.2802, 0.2778, 0.2733, 0.2695, 0.2579, 0.2484, 0.2434, 0.2393, 0.2573, 0.2755, 0.2953, 0.2785, 0.3499, 0.3879, 0.4190, 0.4350, 0.4831, 0.5318, 0.5615, 0.5798, 0.5456, 0.5306, 0.5622, 0.5654, 0.6566, 0.7684, 0.7399, 0.6344, 0.6220, 0.6213, 0.6322, 0.6133, 0.5778, 0.5543, 0.5533, 0.5639, 0.5427, 0.4929, 0.4616, 0.4469, 0.4226, 0.4054, 0.3920, 0.3756, 0.3446, 0.3257, 0.3134, 0.2916, 0.2673, 0.2636, 0.2619, 0.2274, 0.1967, 0.1703, 0.1569, 0.1112, 0.3525, 0.3984, 0.4045, 0.4157, 0.4047, 0.3916, 0.3871, 0.3916, 0.3944, 0.2215, 0.0964, 0.3251, 0.2874, 0.3417, 0.3432, 0.3429, 0.3476, 0.3514, 0.3536, 0.3568, 0.3553, 0.3544, 0.3534, 0.3532, 0.3474, 0.3401, 0.3345]

New Loadshape.F08_Residential_20250614
~   npts=96  interval=0.25
~   mult=[0.5766, 0.5733, 0.5684, 0.5667, 0.5644, 0.5502, 0.5429, 0.5376, 0.5322, 0.5241, 0.5210, 0.5149, 0.5126, 0.5091, 0.5093, 0.5057, 0.5030, 0.5118, 0.5180, 0.5291, 0.5383, 0.5553, 0.5761, 0.6025, 0.5569, 0.6233, 0.6250, 0.6180, 0.5932, 0.5522, 0.5121, 0.4568, 0.3986, 0.3339, 0.2881, 0.2695, 0.2381, 0.2644, 0.2955, 0.2716, 0.2220, 0.2205, 0.2230, 0.2299, 0.2260, 0.2234, 0.2247, 0.2350, 0.2506, 0.2488, 0.2328, 0.2244, 0.2235, 0.2202, 0.2201, 0.2215, 0.2209, 0.2109, 0.2073, 0.2073, 0.2004, 0.1850, 0.1837, 0.1837, 0.1605, 0.1454, 0.1314, 0.1259, 0.0926, 0.3270, 0.4105, 0.4623, 0.5265, 0.5666, 0.6108, 0.6795, 0.7832, 0.8313, 0.4951, 0.2300, 0.8361, 0.7346, 0.8673, 0.8650, 0.8573, 0.8463, 0.8306, 0.8082, 0.7850, 0.7583, 0.7313, 0.7030, 0.6742, 0.6504, 0.6236, 0.5997]

New Loadshape.F08_Mixed_20250614
~   npts=96  interval=0.25
~   mult=[0.5766, 0.5733, 0.5684, 0.5667, 0.5644, 0.5502, 0.5429, 0.5376, 0.5322, 0.5241, 0.5210, 0.5149, 0.5126, 0.5091, 0.5093, 0.5057, 0.5030, 0.5118, 0.5180, 0.5291, 0.5383, 0.5553, 0.5761, 0.6025, 0.5569, 0.6233, 0.6250, 0.6180, 0.5932, 0.5522, 0.5121, 0.4568, 0.3986, 0.3339, 0.2881, 0.2695, 0.2381, 0.2644, 0.2955, 0.2716, 0.2220, 0.2205, 0.2230, 0.2299, 0.2260, 0.2234, 0.2247, 0.2350, 0.2506, 0.2488, 0.2328, 0.2244, 0.2235, 0.2202, 0.2201, 0.2215, 0.2209, 0.2109, 0.2073, 0.2073, 0.2004, 0.1850, 0.1837, 0.1837, 0.1605, 0.1454, 0.1314, 0.1259, 0.0926, 0.3270, 0.4105, 0.4623, 0.5265, 0.5666, 0.6108, 0.6795, 0.7832, 0.8313, 0.4951, 0.2300, 0.8361, 0.7346, 0.8673, 0.8650, 0.8573, 0.8463, 0.8306, 0.8082, 0.7850, 0.7583, 0.7313, 0.7030, 0.6742, 0.6504, 0.6236, 0.5997]
