// ============================================================================
// F09 LOAD SHAPES - Real Data for 2025-06-24
// Generated from CEB metering data + disaggregation
// ============================================================================

New Loadshape.F09_Town_Center_20250624
~   npts=96  interval=0.25
~   mult=[0.6210, 0.6025, 0.5890, 0.5823, 0.5730, 0.5678, 0.5633, 0.5623, 0.5605, 0.5518, 0.5479, 0.5404, 0.5386, 0.5089, 0.4830, 0.4555, 0.4336, 0.4138, 0.4027, 0.3954, 0.3902, 0.4032, 0.4317, 0.4618, 0.4836, 0.5054, 0.5057, 0.4790, 0.4437, 0.3841, 0.2889, 0.2302, 0.1998, 0.1391, 0.0993, 0.1020, 0.1055, 0.1088, 0.1125, 0.1168, 0.1217, 0.1232, 0.1248, 0.1263, 0.1279, 0.1283, 0.1286, 0.1289, 0.1291, 0.1286, 0.1280, 0.1275, 0.1271, 0.1257, 0.1244, 0.1232, 0.1220, 0.1166, 0.1118, 0.1076, 0.1039, 0.1006, 0.0976, 0.0949, 0.1105, 0.1637, 0.2195, 0.3295, 0.3184, 0.3701, 0.4138, 0.4980, 0.5423, 0.6012, 0.6777, 0.7640, 0.8779, 0.9687, 1.0128, 1.0183, 1.0366, 1.0387, 1.0367, 1.0297, 1.0204, 1.0021, 0.9765, 0.9496, 0.9045, 0.8620, 0.8181, 0.7834, 0.7412, 0.7013, 0.6752, 0.6529]

New Loadshape.F09_Village_20250624
~   npts=96  interval=0.25
~   mult=[0.7097, 0.6918, 0.6796, 0.6754, 0.6686, 0.6593, 0.6507, 0.6461, 0.6406, 0.6263, 0.6177, 0.6048, 0.5984, 0.5836, 0.5709, 0.5540, 0.5420, 0.5132, 0.4965, 0.4852, 0.4769, 0.4819, 0.5068, 0.5343, 0.5527, 0.5408, 0.5057, 0.4466, 0.3846, 0.3293, 0.2444, 0.1918, 0.1635, 0.1153, 0.0836, 0.0874, 0.0923, 0.0947, 0.0975, 0.1007, 0.1043, 0.1056, 0.1069, 0.1083, 0.1096, 0.1106, 0.1114, 0.1122, 0.1130, 0.1130, 0.1130, 0.1130, 0.1129, 0.1121, 0.1113, 0.1105, 0.1098, 0.1052, 0.1012, 0.0976, 0.0945, 0.0917, 0.0892, 0.0869, 0.1013, 0.1509, 0.2033, 0.3064, 0.2972, 0.3585, 0.4138, 0.5119, 0.5709, 0.6168, 0.6777, 0.7447, 0.8340, 0.9190, 0.9595, 0.9633, 0.9790, 0.9785, 0.9738, 0.9643, 0.9523, 0.9484, 0.9390, 0.9298, 0.9045, 0.8745, 0.8434, 0.8223, 0.7941, 0.7622, 0.7453, 0.7328]

New Loadshape.F09_Rural_Agri_20250624
~   npts=96  interval=0.25
~   mult=[0.1774, 0.1696, 0.1631, 0.1584, 0.1528, 0.1540, 0.1554, 0.1578, 0.1601, 0.1690, 0.1793, 0.1884, 0.1995, 0.2568, 0.3074, 0.3488, 0.3871, 0.4651, 0.5241, 0.5701, 0.6069, 0.5999, 0.6194, 0.6430, 0.6564, 0.6827, 0.6801, 0.6414, 0.5917, 0.5213, 0.4000, 0.3261, 0.2906, 0.1900, 0.1254, 0.1166, 0.1055, 0.0982, 0.0900, 0.0805, 0.0696, 0.0660, 0.0624, 0.0586, 0.0548, 0.0531, 0.0514, 0.0499, 0.0484, 0.0491, 0.0497, 0.0503, 0.0508, 0.0537, 0.0563, 0.0587, 0.0610, 0.0739, 0.0852, 0.0951, 0.1039, 0.1118, 0.1189, 0.1253, 0.1566, 0.2215, 0.2846, 0.4105, 0.3821, 0.3932, 0.3895, 0.4150, 0.3996, 0.3826, 0.3649, 0.3385, 0.3073, 0.3105, 0.2932, 0.2615, 0.2303, 0.2258, 0.2199, 0.2125, 0.2041, 0.2040, 0.2028, 0.2018, 0.1973, 0.1916, 0.1855, 0.1818, 0.1765, 0.1742, 0.1754, 0.1776]

New Loadshape.F09_Remote_20250624
~   npts=96  interval=0.25
~   mult=[0.7097, 0.6918, 0.6796, 0.6754, 0.6686, 0.6593, 0.6507, 0.6461, 0.6406, 0.6263, 0.6177, 0.6048, 0.5984, 0.5836, 0.5709, 0.5540, 0.5420, 0.5132, 0.4965, 0.4852, 0.4769, 0.4819, 0.5068, 0.5343, 0.5527, 0.5408, 0.5057, 0.4466, 0.3846, 0.3293, 0.2444, 0.1918, 0.1635, 0.1153, 0.0836, 0.0874, 0.0923, 0.0947, 0.0975, 0.1007, 0.1043, 0.1056, 0.1069, 0.1083, 0.1096, 0.1106, 0.1114, 0.1122, 0.1130, 0.1130, 0.1130, 0.1130, 0.1129, 0.1121, 0.1113, 0.1105, 0.1098, 0.1052, 0.1012, 0.0976, 0.0945, 0.0917, 0.0892, 0.0869, 0.1013, 0.1509, 0.2033, 0.3064, 0.2972, 0.3585, 0.4138, 0.5119, 0.5709, 0.6168, 0.6777, 0.7447, 0.8340, 0.9190, 0.9595, 0.9633, 0.9790, 0.9785, 0.9738, 0.9643, 0.9523, 0.9484, 0.9390, 0.9298, 0.9045, 0.8745, 0.8434, 0.8223, 0.7941, 0.7622, 0.7453, 0.7328]
