// ============================================================================
// F09 LOAD SHAPES - Real Data for 2025-05-02
// Generated from CEB metering data + disaggregation
// ============================================================================

New Loadshape.F09_Town_Center_20250502
~   npts=96  interval=0.25
~   mult=[0.6339, 0.6241, 0.6130, 0.5974, 0.5897, 0.5855, 0.5811, 0.5793, 0.5747, 0.5695, 0.5688, 0.5677, 0.5650, 0.5267, 0.4963, 0.4702, 0.4464, 0.4238, 0.4135, 0.4055, 0.4000, 0.4207, 0.4513, 0.4804, 0.5025, 0.5293, 0.5379, 0.5133, 0.4607, 0.3870, 0.3104, 0.2430, 0.1799, 0.1155, 0.0993, 0.1020, 0.1055, 0.1088, 0.1125, 0.1168, 0.1217, 0.1232, 0.1248, 0.1263, 0.1279, 0.1283, 0.1286, 0.1289, 0.1291, 0.1286, 0.1280, 0.1275, 0.1271, 0.1257, 0.1244, 0.1232, 0.1220, 0.1166, 0.1118, 0.1076, 0.1039, 0.1006, 0.0976, 0.0949, 0.0925, 0.1662, 0.2664, 0.3371, 0.3806, 0.3999, 0.4344, 0.4915, 0.5479, 0.6238, 0.7260, 0.8630, 1.0183, 1.0605, 1.0658, 1.0815, 1.0952, 1.0951, 1.0841, 1.0770, 1.0683, 1.0444, 1.0160, 0.9762, 0.9401, 0.8940, 0.8525, 0.8056, 0.7633, 0.7380, 0.7035, 0.6828]

New Loadshape.F09_Village_20250502
~   npts=96  interval=0.25
~   mult=[0.7244, 0.7166, 0.7073, 0.6929, 0.6880, 0.6798, 0.6713, 0.6657, 0.6568, 0.6464, 0.6411, 0.6354, 0.6278, 0.6040, 0.5865, 0.5718, 0.5580, 0.5257, 0.5098, 0.4976, 0.4889, 0.5028, 0.5297, 0.5557, 0.5743, 0.5664, 0.5379, 0.4785, 0.3993, 0.3317, 0.2627, 0.2025, 0.1472, 0.0958, 0.0836, 0.0874, 0.0923, 0.0947, 0.0975, 0.1007, 0.1043, 0.1056, 0.1069, 0.1083, 0.1096, 0.1106, 0.1114, 0.1122, 0.1130, 0.1130, 0.1130, 0.1130, 0.1129, 0.1121, 0.1113, 0.1105, 0.1098, 0.1052, 0.1012, 0.0976, 0.0945, 0.0917, 0.0892, 0.0869, 0.0848, 0.1532, 0.2467, 0.3134, 0.3552, 0.3874, 0.4344, 0.5052, 0.5767, 0.6400, 0.7260, 0.8412, 0.9673, 1.0061, 1.0097, 1.0231, 1.0343, 1.0316, 1.0184, 1.0087, 0.9971, 0.9884, 0.9769, 0.9558, 0.9401, 0.9070, 0.8789, 0.8456, 0.8178, 0.8022, 0.7766, 0.7664]

New Loadshape.F09_Rural_Agri_20250502
~   npts=96  interval=0.25
~   mult=[0.1811, 0.1757, 0.1698, 0.1625, 0.1573, 0.1588, 0.1603, 0.1626, 0.1642, 0.1744, 0.1861, 0.1979, 0.2093, 0.2657, 0.3158, 0.3600, 0.3985, 0.4764, 0.5381, 0.5847, 0.6223, 0.6260, 0.6474, 0.6688, 0.6820, 0.7150, 0.7234, 0.6873, 0.6143, 0.5252, 0.4298, 0.3442, 0.2617, 0.1578, 0.1254, 0.1166, 0.1055, 0.0982, 0.0900, 0.0805, 0.0696, 0.0660, 0.0624, 0.0586, 0.0548, 0.0531, 0.0514, 0.0499, 0.0484, 0.0491, 0.0497, 0.0503, 0.0508, 0.0537, 0.0563, 0.0587, 0.0610, 0.0739, 0.0852, 0.0951, 0.1039, 0.1118, 0.1189, 0.1253, 0.1310, 0.2249, 0.3453, 0.4198, 0.4567, 0.4249, 0.4088, 0.4096, 0.4037, 0.3969, 0.3909, 0.3824, 0.3564, 0.3399, 0.3085, 0.2777, 0.2434, 0.2381, 0.2300, 0.2222, 0.2137, 0.2126, 0.2110, 0.2074, 0.2051, 0.1987, 0.1934, 0.1869, 0.1817, 0.1834, 0.1827, 0.1858]

New Loadshape.F09_Remote_20250502
~   npts=96  interval=0.25
~   mult=[0.7244, 0.7166, 0.7073, 0.6929, 0.6880, 0.6798, 0.6713, 0.6657, 0.6568, 0.6464, 0.6411, 0.6354, 0.6278, 0.6040, 0.5865, 0.5718, 0.5580, 0.5257, 0.5098, 0.4976, 0.4889, 0.5028, 0.5297, 0.5557, 0.5743, 0.5664, 0.5379, 0.4785, 0.3993, 0.3317, 0.2627, 0.2025, 0.1472, 0.0958, 0.0836, 0.0874, 0.0923, 0.0947, 0.0975, 0.1007, 0.1043, 0.1056, 0.1069, 0.1083, 0.1096, 0.1106, 0.1114, 0.1122, 0.1130, 0.1130, 0.1130, 0.1130, 0.1129, 0.1121, 0.1113, 0.1105, 0.1098, 0.1052, 0.1012, 0.0976, 0.0945, 0.0917, 0.0892, 0.0869, 0.0848, 0.1532, 0.2467, 0.3134, 0.3552, 0.3874, 0.4344, 0.5052, 0.5767, 0.6400, 0.7260, 0.8412, 0.9673, 1.0061, 1.0097, 1.0231, 1.0343, 1.0316, 1.0184, 1.0087, 0.9971, 0.9884, 0.9769, 0.9558, 0.9401, 0.9070, 0.8789, 0.8456, 0.8178, 0.8022, 0.7766, 0.7664]
