// ============================================================================
// F09 LOAD SHAPES - Real Data for 2025-08-18
// Generated from CEB metering data + disaggregation
// ============================================================================

New Loadshape.F09_Town_Center_20250818
~   npts=96  interval=0.25
~   mult=[0.6265, 0.6102, 0.5988, 0.5898, 0.5804, 0.5733, 0.5710, 0.5694, 0.5648, 0.5613, 0.5526, 0.5453, 0.5402, 0.5074, 0.4830, 0.4592, 0.4373, 0.4159, 0.4098, 0.4024, 0.3991, 0.4140, 0.4392, 0.4598, 0.4866, 0.5098, 0.5380, 0.5400, 0.5147, 0.4656, 0.4304, 0.3958, 0.3729, 0.3766, 0.3765, 0.3734, 0.3680, 0.3532, 0.3420, 0.3658, 0.3970, 0.3900, 0.3511, 0.3013, 0.2420, 0.1283, 0.1286, 0.1289, 0.1291, 0.1286, 0.1280, 0.1275, 0.1271, 0.1257, 0.1244, 0.1232, 0.1220, 0.1166, 0.1118, 0.1076, 0.1039, 0.1006, 0.0976, 0.0949, 0.0925, 0.1033, 0.0957, 0.1307, 0.2734, 0.3581, 0.3978, 0.4389, 0.5252, 0.6166, 0.6992, 0.8135, 0.9683, 1.0409, 1.0576, 1.0716, 1.0853, 1.0806, 1.0694, 1.0632, 1.0485, 1.0251, 0.9856, 0.9507, 0.9173, 0.8769, 0.8336, 0.7918, 0.7512, 0.7236, 0.6830, 0.6637]

New Loadshape.F09_Village_20250818
~   npts=96  interval=0.25
~   mult=[0.7159, 0.7006, 0.6910, 0.6842, 0.6772, 0.6656, 0.6596, 0.6543, 0.6455, 0.6371, 0.6229, 0.6104, 0.6002, 0.5819, 0.5709, 0.5585, 0.5467, 0.5158, 0.5052, 0.4938, 0.4878, 0.4948, 0.5156, 0.5319, 0.5561, 0.5455, 0.5380, 0.5034, 0.4460, 0.3991, 0.3642, 0.3299, 0.3051, 0.3123, 0.3170, 0.3200, 0.3220, 0.3076, 0.2964, 0.3154, 0.3403, 0.3343, 0.3010, 0.2582, 0.2074, 0.1106, 0.1114, 0.1122, 0.1130, 0.1130, 0.1130, 0.1130, 0.1129, 0.1121, 0.1113, 0.1105, 0.1098, 0.1052, 0.1012, 0.0976, 0.0945, 0.0917, 0.0892, 0.0869, 0.0848, 0.0952, 0.0887, 0.1216, 0.2552, 0.3469, 0.3978, 0.4510, 0.5529, 0.6326, 0.6992, 0.7929, 0.9199, 0.9876, 1.0020, 1.0137, 1.0250, 1.0180, 1.0046, 0.9957, 0.9786, 0.9702, 0.9477, 0.9308, 0.9173, 0.8897, 0.8593, 0.8312, 0.8049, 0.7865, 0.7539, 0.7449]

New Loadshape.F09_Rural_Agri_20250818
~   npts=96  interval=0.25
~   mult=[0.1790, 0.1718, 0.1658, 0.1604, 0.1548, 0.1555, 0.1575, 0.1598, 0.1614, 0.1719, 0.1808, 0.1901, 0.2001, 0.2560, 0.3074, 0.3516, 0.3905, 0.4675, 0.5333, 0.5802, 0.6209, 0.6159, 0.6302, 0.6401, 0.6604, 0.6886, 0.7236, 0.7231, 0.6862, 0.6319, 0.5959, 0.5608, 0.5424, 0.5144, 0.4756, 0.4267, 0.3680, 0.3190, 0.2736, 0.2523, 0.2268, 0.2089, 0.1756, 0.1399, 0.1037, 0.0531, 0.0514, 0.0499, 0.0484, 0.0491, 0.0497, 0.0503, 0.0508, 0.0537, 0.0563, 0.0587, 0.0610, 0.0739, 0.0852, 0.0951, 0.1039, 0.1118, 0.1189, 0.1253, 0.1310, 0.1398, 0.1241, 0.1629, 0.3281, 0.3804, 0.3744, 0.3657, 0.3870, 0.3924, 0.3765, 0.3604, 0.3389, 0.3336, 0.3062, 0.2751, 0.2412, 0.2349, 0.2268, 0.2194, 0.2097, 0.2087, 0.2047, 0.2020, 0.2001, 0.1949, 0.1891, 0.1837, 0.1789, 0.1798, 0.1774, 0.1806]

New Loadshape.F09_Remote_20250818
~   npts=96  interval=0.25
~   mult=[0.7159, 0.7006, 0.6910, 0.6842, 0.6772, 0.6656, 0.6596, 0.6543, 0.6455, 0.6371, 0.6229, 0.6104, 0.6002, 0.5819, 0.5709, 0.5585, 0.5467, 0.5158, 0.5052, 0.4938, 0.4878, 0.4948, 0.5156, 0.5319, 0.5561, 0.5455, 0.5380, 0.5034, 0.4460, 0.3991, 0.3642, 0.3299, 0.3051, 0.3123, 0.3170, 0.3200, 0.3220, 0.3076, 0.2964, 0.3154, 0.3403, 0.3343, 0.3010, 0.2582, 0.2074, 0.1106, 0.1114, 0.1122, 0.1130, 0.1130, 0.1130, 0.1130, 0.1129, 0.1121, 0.1113, 0.1105, 0.1098, 0.1052, 0.1012, 0.0976, 0.0945, 0.0917, 0.0892, 0.0869, 0.0848, 0.0952, 0.0887, 0.1216, 0.2552, 0.3469, 0.3978, 0.4510, 0.5529, 0.6326, 0.6992, 0.7929, 0.9199, 0.9876, 1.0020, 1.0137, 1.0250, 1.0180, 1.0046, 0.9957, 0.9786, 0.9702, 0.9477, 0.9308, 0.9173, 0.8897, 0.8593, 0.8312, 0.8049, 0.7865, 0.7539, 0.7449]
