// ============================================================================
// F09 LOAD SHAPES - Real Data for 2025-06-28
// Generated from CEB metering data + disaggregation
// ============================================================================

New Loadshape.F09_Town_Center_20250628
~   npts=96  interval=0.25
~   mult=[0.6424, 0.6283, 0.6185, 0.6109, 0.6019, 0.5988, 0.5938, 0.5884, 0.5797, 0.5770, 0.5741, 0.5647, 0.5612, 0.5279, 0.4977, 0.4699, 0.4510, 0.4276, 0.4104, 0.3996, 0.3951, 0.4103, 0.4324, 0.4514, 0.4625, 0.4796, 0.4801, 0.4633, 0.4441, 0.3851, 0.3137, 0.2366, 0.1986, 0.1679, 0.1102, 0.1020, 0.1055, 0.1088, 0.1284, 0.1168, 0.1217, 0.1232, 0.1248, 0.1263, 0.1279, 0.1283, 0.1286, 0.1289, 0.1291, 0.1286, 0.1280, 0.1275, 0.1271, 0.1257, 0.1244, 0.1232, 0.1220, 0.1166, 0.1118, 0.1076, 0.1039, 0.1006, 0.0976, 0.0949, 0.0925, 0.0939, 0.1113, 0.1799, 0.2512, 0.3258, 0.3983, 0.4639, 0.5053, 0.5770, 0.6527, 0.7351, 0.8482, 0.9878, 1.0354, 1.0516, 1.0554, 1.0458, 1.0411, 1.0370, 1.0246, 1.0054, 0.9756, 0.9510, 0.9157, 0.8785, 0.8414, 0.8033, 0.7568, 0.7207, 0.6974, 0.6754]

New Loadshape.F09_Village_20250628
~   npts=96  interval=0.25
~   mult=[0.7342, 0.7214, 0.7136, 0.7086, 0.7022, 0.6953, 0.6860, 0.6761, 0.6625, 0.6550, 0.6471, 0.6320, 0.6236, 0.6053, 0.5882, 0.5715, 0.5638, 0.5303, 0.5059, 0.4903, 0.4829, 0.4904, 0.5076, 0.5222, 0.5286, 0.5133, 0.4801, 0.4319, 0.3848, 0.3301, 0.2654, 0.1971, 0.1625, 0.1392, 0.0928, 0.0874, 0.0923, 0.0947, 0.1112, 0.1007, 0.1043, 0.1056, 0.1069, 0.1083, 0.1096, 0.1106, 0.1114, 0.1122, 0.1130, 0.1130, 0.1130, 0.1130, 0.1129, 0.1121, 0.1113, 0.1105, 0.1098, 0.1052, 0.1012, 0.0976, 0.0945, 0.0917, 0.0892, 0.0869, 0.0848, 0.0865, 0.1031, 0.1673, 0.2344, 0.3157, 0.3983, 0.4768, 0.5319, 0.5920, 0.6527, 0.7165, 0.8058, 0.9372, 0.9809, 0.9948, 0.9967, 0.9852, 0.9780, 0.9712, 0.9563, 0.9516, 0.9381, 0.9312, 0.9157, 0.8913, 0.8674, 0.8433, 0.8109, 0.7834, 0.7698, 0.7581]

New Loadshape.F09_Rural_Agri_20250628
~   npts=96  interval=0.25
~   mult=[0.1835, 0.1768, 0.1713, 0.1662, 0.1605, 0.1624, 0.1638, 0.1652, 0.1656, 0.1767, 0.1879, 0.1969, 0.2079, 0.2663, 0.3167, 0.3598, 0.4027, 0.4806, 0.5340, 0.5762, 0.6146, 0.6105, 0.6204, 0.6284, 0.6277, 0.6479, 0.6456, 0.6204, 0.5921, 0.5226, 0.4343, 0.3351, 0.2889, 0.2293, 0.1392, 0.1166, 0.1055, 0.0982, 0.1027, 0.0805, 0.0696, 0.0660, 0.0624, 0.0586, 0.0548, 0.0531, 0.0514, 0.0499, 0.0484, 0.0491, 0.0497, 0.0503, 0.0508, 0.0537, 0.0563, 0.0587, 0.0610, 0.0739, 0.0852, 0.0951, 0.1039, 0.1118, 0.1189, 0.1253, 0.1310, 0.1270, 0.1443, 0.2241, 0.3014, 0.3462, 0.3749, 0.3866, 0.3723, 0.3672, 0.3515, 0.3257, 0.2969, 0.3166, 0.2997, 0.2700, 0.2345, 0.2273, 0.2208, 0.2140, 0.2049, 0.2047, 0.2026, 0.2021, 0.1998, 0.1952, 0.1908, 0.1864, 0.1802, 0.1791, 0.1811, 0.1838]

New Loadshape.F09_Remote_20250628
~   npts=96  interval=0.25
~   mult=[0.7342, 0.7214, 0.7136, 0.7086, 0.7022, 0.6953, 0.6860, 0.6761, 0.6625, 0.6550, 0.6471, 0.6320, 0.6236, 0.6053, 0.5882, 0.5715, 0.5638, 0.5303, 0.5059, 0.4903, 0.4829, 0.4904, 0.5076, 0.5222, 0.5286, 0.5133, 0.4801, 0.4319, 0.3848, 0.3301, 0.2654, 0.1971, 0.1625, 0.1392, 0.0928, 0.0874, 0.0923, 0.0947, 0.1112, 0.1007, 0.1043, 0.1056, 0.1069, 0.1083, 0.1096, 0.1106, 0.1114, 0.1122, 0.1130, 0.1130, 0.1130, 0.1130, 0.1129, 0.1121, 0.1113, 0.1105, 0.1098, 0.1052, 0.1012, 0.0976, 0.0945, 0.0917, 0.0892, 0.0869, 0.0848, 0.0865, 0.1031, 0.1673, 0.2344, 0.3157, 0.3983, 0.4768, 0.5319, 0.5920, 0.6527, 0.7165, 0.8058, 0.9372, 0.9809, 0.9948, 0.9967, 0.9852, 0.9780, 0.9712, 0.9563, 0.9516, 0.9381, 0.9312, 0.9157, 0.8913, 0.8674, 0.8433, 0.8109, 0.7834, 0.7698, 0.7581]
