// ============================================================================
// F10 LOAD SHAPES - Real Data for 2025-06-07
// Generated from CEB metering data + disaggregation
// ============================================================================

New Loadshape.F10_Town_20250607
~   npts=96  interval=0.25
~   mult=[0.3456, 0.3262, 0.3068, 0.2920, 0.2775, 0.2753, 0.2756, 0.2750, 0.2712, 0.2710, 0.2710, 0.2717, 0.2710, 0.2693, 0.2684, 0.2675, 0.2660, 0.2701, 0.2775, 0.2824, 0.2877, 0.3231, 0.3581, 0.3971, 0.4312, 0.4849, 0.5368, 0.5701, 0.5785, 0.6150, 0.6327, 0.6393, 0.6294, 0.5888, 0.5592, 0.5337, 0.5176, 0.4826, 0.4429, 0.4093, 0.4125, 0.3325, 0.2986, 0.1590, 0.1594, 0.1579, 0.1564, 0.1550, 0.1535, 0.1522, 0.1510, 0.1499, 0.1487, 0.1467, 0.1446, 0.1425, 0.1405, 0.1371, 0.1339, 0.1307, 0.1275, 0.1254, 0.1235, 0.1216, 0.1199, 0.1166, 0.2144, 0.3718, 0.3925, 0.3855, 0.4155, 0.4425, 0.4627, 0.4708, 0.4741, 0.4720, 0.4746, 0.5064, 0.5044, 0.4746, 0.4461, 0.4407, 0.4366, 0.4273, 0.4208, 0.4220, 0.4154, 0.3969, 0.4008, 0.3985, 0.3931, 0.3880, 0.3824, 0.3739, 0.3671, 0.3586]

New Loadshape.F10_Fishing_20250607
~   npts=96  interval=0.25
~   mult=[1.0367, 1.0220, 1.0082, 1.0108, 1.0177, 0.9955, 0.9830, 0.9670, 0.9401, 0.9305, 0.9215, 0.9148, 0.9035, 0.8976, 0.8948, 0.8917, 0.8868, 0.8517, 0.8326, 0.8097, 0.7912, 0.7719, 0.7617, 0.7655, 0.7639, 0.7606, 0.7576, 0.7326, 0.6837, 0.6276, 0.5624, 0.4985, 0.4327, 0.3691, 0.3196, 0.2778, 0.2452, 0.2131, 0.1817, 0.1554, 0.1444, 0.1136, 0.0995, 0.0516, 0.0503, 0.0505, 0.0507, 0.0509, 0.0512, 0.0516, 0.0520, 0.0525, 0.0529, 0.0541, 0.0554, 0.0566, 0.0578, 0.0614, 0.0649, 0.0683, 0.0717, 0.0753, 0.0786, 0.0817, 0.0846, 0.0879, 0.1715, 0.3142, 0.3489, 0.3744, 0.4407, 0.5127, 0.5861, 0.6591, 0.7396, 0.8287, 0.9491, 1.0895, 1.1749, 1.2064, 1.2492, 1.2535, 1.2629, 1.2581, 1.2625, 1.2769, 1.2690, 1.2247, 1.2504, 1.2406, 1.2211, 1.2024, 1.1819, 1.1478, 1.1188, 1.0845]

New Loadshape.F10_Coastal_Res_20250607
~   npts=96  interval=0.25
~   mult=[0.6047, 0.5871, 0.5699, 0.5616, 0.5551, 0.5413, 0.5329, 0.5225, 0.5062, 0.5014, 0.4969, 0.4936, 0.4879, 0.4892, 0.4921, 0.4949, 0.4966, 0.5360, 0.5789, 0.6139, 0.6473, 0.6971, 0.7487, 0.8100, 0.8624, 0.8637, 0.8649, 0.8409, 0.7889, 0.7029, 0.6092, 0.5201, 0.4327, 0.3603, 0.3036, 0.2559, 0.2179, 0.1943, 0.1704, 0.1502, 0.1444, 0.1178, 0.1072, 0.0578, 0.0587, 0.0611, 0.0634, 0.0658, 0.0682, 0.0698, 0.0713, 0.0729, 0.0744, 0.0764, 0.0785, 0.0806, 0.0826, 0.0839, 0.0852, 0.0864, 0.0877, 0.0868, 0.0860, 0.0853, 0.0846, 0.0862, 0.1654, 0.2985, 0.3271, 0.3576, 0.4281, 0.5057, 0.5861, 0.6591, 0.7396, 0.8287, 0.9491, 1.0676, 1.1275, 1.1329, 1.1472, 1.1262, 1.1084, 1.0769, 1.0521, 1.0274, 0.9820, 0.9072, 0.8817, 0.8503, 0.8112, 0.7717, 0.7300, 0.7000, 0.6731, 0.6428]
