// ============================================================================
// F10 LOAD SHAPES - Real Data for 2025-06-06
// Generated from CEB metering data + disaggregation
// ============================================================================

New Loadshape.F10_Town_20250606
~   npts=96  interval=0.25
~   mult=[0.3462, 0.3268, 0.3104, 0.2937, 0.2764, 0.2765, 0.2769, 0.2794, 0.2800, 0.2799, 0.2793, 0.2791, 0.2808, 0.2793, 0.2717, 0.2724, 0.2682, 0.2700, 0.2780, 0.2847, 0.2926, 0.3309, 0.3697, 0.4118, 0.4593, 0.5303, 0.5879, 0.6275, 0.6258, 0.6439, 0.6581, 0.6713, 0.6909, 0.6495, 0.6134, 0.6078, 0.5795, 0.5193, 0.4340, 0.3562, 0.2984, 0.2413, 0.2202, 0.1590, 0.1594, 0.1579, 0.1564, 0.1550, 0.1535, 0.1522, 0.1510, 0.1499, 0.1487, 0.1467, 0.1446, 0.1425, 0.1405, 0.1371, 0.1339, 0.1307, 0.1275, 0.1254, 0.1235, 0.1216, 0.1199, 0.1525, 0.1915, 0.2917, 0.3602, 0.3940, 0.4322, 0.4480, 0.4386, 0.4501, 0.4734, 0.4781, 0.4774, 0.5094, 0.5064, 0.4787, 0.4464, 0.4431, 0.4364, 0.4305, 0.4245, 0.4233, 0.4210, 0.4133, 0.4069, 0.3999, 0.3902, 0.3842, 0.3755, 0.3654, 0.3551, 0.3508]

New Loadshape.F10_Fishing_20250606
~   npts=96  interval=0.25
~   mult=[1.0386, 1.0241, 1.0199, 1.0167, 1.0134, 0.9999, 0.9875, 0.9825, 0.9707, 0.9609, 0.9498, 0.9397, 0.9360, 0.9310, 0.9055, 0.9081, 0.8941, 0.8517, 0.8340, 0.8161, 0.8046, 0.7906, 0.7865, 0.7939, 0.8136, 0.8320, 0.8296, 0.8064, 0.7395, 0.6570, 0.5850, 0.5234, 0.4750, 0.4071, 0.3505, 0.3164, 0.2745, 0.2293, 0.1781, 0.1353, 0.1044, 0.0825, 0.0734, 0.0516, 0.0503, 0.0505, 0.0507, 0.0509, 0.0512, 0.0516, 0.0520, 0.0525, 0.0529, 0.0541, 0.0554, 0.0566, 0.0578, 0.0614, 0.0649, 0.0683, 0.0717, 0.0753, 0.0786, 0.0817, 0.0846, 0.1149, 0.1532, 0.2465, 0.3202, 0.3826, 0.4584, 0.5191, 0.5556, 0.6301, 0.7385, 0.8394, 0.9548, 1.0960, 1.1796, 1.2168, 1.2500, 1.2604, 1.2623, 1.2673, 1.2734, 1.2811, 1.2859, 1.2753, 1.2694, 1.2452, 1.2122, 1.1907, 1.1605, 1.1216, 1.0821, 1.0610]

New Loadshape.F10_Coastal_Res_20250606
~   npts=96  interval=0.25
~   mult=[0.6059, 0.5883, 0.5765, 0.5648, 0.5527, 0.5437, 0.5353, 0.5308, 0.5227, 0.5178, 0.5121, 0.5071, 0.5054, 0.5074, 0.4980, 0.5040, 0.5007, 0.5359, 0.5799, 0.6187, 0.6583, 0.7140, 0.7731, 0.8400, 0.9186, 0.9446, 0.9471, 0.9256, 0.8533, 0.7359, 0.6337, 0.5461, 0.4750, 0.3974, 0.3330, 0.2914, 0.2440, 0.2091, 0.1669, 0.1308, 0.1044, 0.0855, 0.0790, 0.0578, 0.0587, 0.0611, 0.0634, 0.0658, 0.0682, 0.0698, 0.0713, 0.0729, 0.0744, 0.0764, 0.0785, 0.0806, 0.0826, 0.0839, 0.0852, 0.0864, 0.0877, 0.0868, 0.0860, 0.0853, 0.0846, 0.1127, 0.1477, 0.2342, 0.3002, 0.3655, 0.4453, 0.5120, 0.5556, 0.6301, 0.7385, 0.8394, 0.9548, 1.0739, 1.1320, 1.1426, 1.1480, 1.1324, 1.1079, 1.0848, 1.0612, 1.0307, 0.9951, 0.9447, 0.8951, 0.8535, 0.8054, 0.7642, 0.7168, 0.6840, 0.6509, 0.6289]
