// ============================================================================
// F10 LOAD SHAPES - Real Data for 2025-05-06
// Generated from CEB metering data + disaggregation
// ============================================================================

New Loadshape.F10_Town_20250506
~   npts=96  interval=0.25
~   mult=[0.3175, 0.2996, 0.2865, 0.2744, 0.2555, 0.2533, 0.2539, 0.2553, 0.2585, 0.2596, 0.2572, 0.2543, 0.2558, 0.2540, 0.2526, 0.2505, 0.2491, 0.2526, 0.2573, 0.2633, 0.2696, 0.3048, 0.3423, 0.3785, 0.4062, 0.4480, 0.4852, 0.5111, 0.5124, 0.5539, 0.5783, 0.5786, 0.5658, 0.4982, 0.4315, 0.3756, 0.3512, 0.2710, 0.2059, 0.1545, 0.1578, 0.1582, 0.1586, 0.1590, 0.1594, 0.1579, 0.1564, 0.1550, 0.1535, 0.1522, 0.1510, 0.1499, 0.1487, 0.1467, 0.1446, 0.1425, 0.1405, 0.1371, 0.1339, 0.1307, 0.1275, 0.1254, 0.1235, 0.1216, 0.1199, 0.1166, 0.1642, 0.2368, 0.2979, 0.3599, 0.3857, 0.3955, 0.4032, 0.4212, 0.4538, 0.4798, 0.5066, 0.5185, 0.5029, 0.4746, 0.4436, 0.4399, 0.4277, 0.4168, 0.4110, 0.4050, 0.4020, 0.4013, 0.3959, 0.3897, 0.3830, 0.3738, 0.3646, 0.3556, 0.3522, 0.3429]

New Loadshape.F10_Fishing_20250506
~   npts=96  interval=0.25
~   mult=[0.9524, 0.9388, 0.9414, 0.9498, 0.9370, 0.9163, 0.9057, 0.8977, 0.8963, 0.8912, 0.8744, 0.8561, 0.8528, 0.8465, 0.8420, 0.8350, 0.8304, 0.7967, 0.7720, 0.7547, 0.7413, 0.7283, 0.7281, 0.7298, 0.7196, 0.7028, 0.6847, 0.6567, 0.6055, 0.5652, 0.5141, 0.4511, 0.3890, 0.3123, 0.2466, 0.1955, 0.1664, 0.1197, 0.0845, 0.0587, 0.0552, 0.0541, 0.0529, 0.0516, 0.0503, 0.0505, 0.0507, 0.0509, 0.0512, 0.0516, 0.0520, 0.0525, 0.0529, 0.0541, 0.0554, 0.0566, 0.0578, 0.0614, 0.0649, 0.0683, 0.0717, 0.0753, 0.0786, 0.0817, 0.0846, 0.0879, 0.1314, 0.2001, 0.2648, 0.3495, 0.4090, 0.4583, 0.5107, 0.5897, 0.7080, 0.8424, 1.0133, 1.1155, 1.1715, 1.2064, 1.2422, 1.2512, 1.2371, 1.2270, 1.2330, 1.2255, 1.2280, 1.2384, 1.2352, 1.2132, 1.1896, 1.1585, 1.1271, 1.0916, 1.0735, 1.0371]

New Loadshape.F10_Coastal_Res_20250506
~   npts=96  interval=0.25
~   mult=[0.5556, 0.5393, 0.5321, 0.5277, 0.5111, 0.4982, 0.4909, 0.4850, 0.4826, 0.4802, 0.4715, 0.4620, 0.4605, 0.4614, 0.4631, 0.4634, 0.4650, 0.5013, 0.5367, 0.5722, 0.6065, 0.6577, 0.7156, 0.7722, 0.8125, 0.7980, 0.7818, 0.7538, 0.6987, 0.6330, 0.5569, 0.4707, 0.3890, 0.3049, 0.2342, 0.1801, 0.1479, 0.1091, 0.0792, 0.0567, 0.0552, 0.0561, 0.0569, 0.0578, 0.0587, 0.0611, 0.0634, 0.0658, 0.0682, 0.0698, 0.0713, 0.0729, 0.0744, 0.0764, 0.0785, 0.0806, 0.0826, 0.0839, 0.0852, 0.0864, 0.0877, 0.0868, 0.0860, 0.0853, 0.0846, 0.0862, 0.1267, 0.1901, 0.2483, 0.3338, 0.3974, 0.4520, 0.5107, 0.5897, 0.7080, 0.8424, 1.0133, 1.0930, 1.1242, 1.1329, 1.1408, 1.1241, 1.0858, 1.0503, 1.0275, 0.9860, 0.9503, 0.9174, 0.8710, 0.8316, 0.7904, 0.7436, 0.6961, 0.6657, 0.6458, 0.6147]
