// ============================================================================
// F10 LOAD SHAPES - Real Data for 2025-07-14
// Generated from CEB metering data + disaggregation
// ============================================================================

New Loadshape.F10_Town_20250714
~   npts=96  interval=0.25
~   mult=[0.3654, 0.3437, 0.3271, 0.3103, 0.2916, 0.2893, 0.2866, 0.2856, 0.2881, 0.2888, 0.2858, 0.2829, 0.2904, 0.2896, 0.2849, 0.2819, 0.2816, 0.2872, 0.2932, 0.3019, 0.3100, 0.3463, 0.3845, 0.4266, 0.4618, 0.5252, 0.5780, 0.6196, 0.6344, 0.6859, 0.7086, 0.7228, 0.7244, 0.6758, 0.6541, 0.7194, 0.7287, 0.6941, 0.6914, 0.6341, 0.6320, 0.5836, 0.3173, 0.2566, 0.2142, 0.1579, 0.1564, 0.1550, 0.1535, 0.1522, 0.1510, 0.1499, 0.1487, 0.1467, 0.1446, 0.1425, 0.1405, 0.1371, 0.1339, 0.1307, 0.1275, 0.1254, 0.1235, 0.1216, 0.1199, 0.2199, 0.1992, 0.3312, 0.3512, 0.4173, 0.4826, 0.5030, 0.5106, 0.5173, 0.5097, 0.5008, 0.4989, 0.5290, 0.5279, 0.5019, 0.4651, 0.4601, 0.4526, 0.4476, 0.4400, 0.4358, 0.4299, 0.4257, 0.4214, 0.4141, 0.3992, 0.3946, 0.3781, 0.3655, 0.3511, 0.3414]

New Loadshape.F10_Fishing_20250714
~   npts=96  interval=0.25
~   mult=[1.0962, 1.0771, 1.0749, 1.0741, 1.0691, 1.0461, 1.0224, 1.0043, 0.9987, 0.9914, 0.9718, 0.9524, 0.9679, 0.9655, 0.9498, 0.9396, 0.9385, 0.9057, 0.8797, 0.8655, 0.8526, 0.8275, 0.8179, 0.8225, 0.8181, 0.8239, 0.8156, 0.7962, 0.7497, 0.6999, 0.6299, 0.5635, 0.4980, 0.4236, 0.3738, 0.3745, 0.3452, 0.3065, 0.2836, 0.2408, 0.2212, 0.1995, 0.1058, 0.0833, 0.0676, 0.0505, 0.0507, 0.0509, 0.0512, 0.0516, 0.0520, 0.0525, 0.0529, 0.0541, 0.0554, 0.0566, 0.0578, 0.0614, 0.0649, 0.0683, 0.0717, 0.0753, 0.0786, 0.0817, 0.0846, 0.1657, 0.1593, 0.2799, 0.3122, 0.4052, 0.5118, 0.5828, 0.6467, 0.7242, 0.7952, 0.8791, 0.9979, 1.1380, 1.2297, 1.2758, 1.3022, 1.3087, 1.3092, 1.3178, 1.3199, 1.3189, 1.3133, 1.3137, 1.3148, 1.2893, 1.2400, 1.2227, 1.1687, 1.1221, 1.0699, 1.0324]

New Loadshape.F10_Coastal_Res_20250714
~   npts=96  interval=0.25
~   mult=[0.6395, 0.6187, 0.6075, 0.5967, 0.5832, 0.5689, 0.5542, 0.5426, 0.5377, 0.5342, 0.5240, 0.5139, 0.5227, 0.5262, 0.5224, 0.5215, 0.5256, 0.5699, 0.6116, 0.6562, 0.6975, 0.7473, 0.8039, 0.8703, 0.9236, 0.9355, 0.9312, 0.9139, 0.8650, 0.7839, 0.6824, 0.5880, 0.4980, 0.4135, 0.3551, 0.3449, 0.3068, 0.2794, 0.2659, 0.2328, 0.2212, 0.2069, 0.1139, 0.0933, 0.0789, 0.0611, 0.0634, 0.0658, 0.0682, 0.0698, 0.0713, 0.0729, 0.0744, 0.0764, 0.0785, 0.0806, 0.0826, 0.0839, 0.0852, 0.0864, 0.0877, 0.0868, 0.0860, 0.0853, 0.0846, 0.1626, 0.1537, 0.2659, 0.2927, 0.3870, 0.4972, 0.5749, 0.6467, 0.7242, 0.7952, 0.8791, 0.9979, 1.1151, 1.1800, 1.1981, 1.1959, 1.1758, 1.1490, 1.1280, 1.0999, 1.0611, 1.0162, 0.9731, 0.9271, 0.8837, 0.8238, 0.7848, 0.7218, 0.6843, 0.6436, 0.6119]
