// ============================================================================
// F10 LOAD SHAPES - Real Data for 2025-05-12
// Generated from CEB metering data + disaggregation
// ============================================================================

New Loadshape.F10_Town_20250512
~   npts=96  interval=0.25
~   mult=[0.3388, 0.3166, 0.2980, 0.2818, 0.2658, 0.2690, 0.2697, 0.2691, 0.2728, 0.2727, 0.2717, 0.2745, 0.2714, 0.2680, 0.2679, 0.2667, 0.2671, 0.2719, 0.2769, 0.2834, 0.2893, 0.3279, 0.3675, 0.4070, 0.4403, 0.4947, 0.5425, 0.5713, 0.5891, 0.6235, 0.6489, 0.6410, 0.6283, 0.5768, 0.5341, 0.4776, 0.4906, 0.4111, 0.3318, 0.2353, 0.1718, 0.1582, 0.1586, 0.1590, 0.1972, 0.1717, 0.2257, 0.2228, 0.2080, 0.1522, 0.1510, 0.1499, 0.1487, 0.1467, 0.1446, 0.1425, 0.1405, 0.1371, 0.1339, 0.1307, 0.1275, 0.1254, 0.1235, 0.1216, 0.1199, 0.1166, 0.1362, 0.2348, 0.3090, 0.3770, 0.4243, 0.4502, 0.4497, 0.4605, 0.4631, 0.4712, 0.4944, 0.5147, 0.5023, 0.4748, 0.4363, 0.4197, 0.4068, 0.3962, 0.3868, 0.3795, 0.3746, 0.3670, 0.3617, 0.3590, 0.3539, 0.3510, 0.3452, 0.3358, 0.3335, 0.3325]

New Loadshape.F10_Fishing_20250512
~   npts=96  interval=0.25
~   mult=[1.0164, 0.9920, 0.9791, 0.9754, 0.9746, 0.9729, 0.9620, 0.9463, 0.9456, 0.9363, 0.9237, 0.9243, 0.9046, 0.8934, 0.8931, 0.8889, 0.8905, 0.8577, 0.8306, 0.8125, 0.7957, 0.7835, 0.7817, 0.7848, 0.7800, 0.7761, 0.7655, 0.7341, 0.6963, 0.6363, 0.5768, 0.4998, 0.4320, 0.3616, 0.3052, 0.2486, 0.2324, 0.1815, 0.1361, 0.0894, 0.0601, 0.0541, 0.0529, 0.0516, 0.0623, 0.0550, 0.0732, 0.0732, 0.0693, 0.0516, 0.0520, 0.0525, 0.0529, 0.0541, 0.0554, 0.0566, 0.0578, 0.0614, 0.0649, 0.0683, 0.0717, 0.0753, 0.0786, 0.0817, 0.0846, 0.0879, 0.1089, 0.1984, 0.2747, 0.3661, 0.4501, 0.5217, 0.5697, 0.6447, 0.7224, 0.8272, 0.9887, 1.1073, 1.1700, 1.2068, 1.2217, 1.1937, 1.1766, 1.1664, 1.1603, 1.1482, 1.1444, 1.1325, 1.1285, 1.1177, 1.0993, 1.0878, 1.0669, 1.0310, 1.0162, 1.0056]

New Loadshape.F10_Coastal_Res_20250512
~   npts=96  interval=0.25
~   mult=[0.5929, 0.5699, 0.5534, 0.5419, 0.5316, 0.5290, 0.5215, 0.5113, 0.5092, 0.5045, 0.4981, 0.4987, 0.4885, 0.4869, 0.4912, 0.4934, 0.4987, 0.5397, 0.5775, 0.6160, 0.6510, 0.7075, 0.7683, 0.8304, 0.8807, 0.8813, 0.8740, 0.8426, 0.8034, 0.7126, 0.6249, 0.5215, 0.4320, 0.3530, 0.2899, 0.2290, 0.2066, 0.1655, 0.1276, 0.0864, 0.0601, 0.0561, 0.0569, 0.0578, 0.0726, 0.0664, 0.0915, 0.0946, 0.0925, 0.0698, 0.0713, 0.0729, 0.0744, 0.0764, 0.0785, 0.0806, 0.0826, 0.0839, 0.0852, 0.0864, 0.0877, 0.0868, 0.0860, 0.0853, 0.0846, 0.0862, 0.1051, 0.1885, 0.2575, 0.3497, 0.4372, 0.5145, 0.5697, 0.6447, 0.7224, 0.8272, 0.9887, 1.0851, 1.1227, 1.1333, 1.1220, 1.0725, 1.0326, 0.9984, 0.9669, 0.9239, 0.8855, 0.8389, 0.7957, 0.7661, 0.7304, 0.6982, 0.6590, 0.6287, 0.6113, 0.5961]
