// ============================================================================
// F10 LOAD SHAPES - Real Data for 2025-06-21
// Generated from CEB metering data + disaggregation
// ============================================================================

New Loadshape.F10_Town_20250621
~   npts=96  interval=0.25
~   mult=[0.3279, 0.3109, 0.2968, 0.2824, 0.2683, 0.2653, 0.2692, 0.2688, 0.2684, 0.2681, 0.2677, 0.2677, 0.2677, 0.2673, 0.2670, 0.2656, 0.2655, 0.2713, 0.2759, 0.2831, 0.2926, 0.3248, 0.3621, 0.3991, 0.4329, 0.4824, 0.5313, 0.5665, 0.5883, 0.6305, 0.6484, 0.6425, 0.6727, 0.6622, 0.6045, 0.5157, 0.5687, 0.5155, 0.5540, 0.4492, 0.4797, 0.4764, 0.4262, 0.1756, 0.1594, 0.1579, 0.1564, 0.1550, 0.1535, 0.1522, 0.1510, 0.1499, 0.1487, 0.1467, 0.1446, 0.1425, 0.1405, 0.1371, 0.1339, 0.1307, 0.1275, 0.1254, 0.1235, 0.1216, 0.1199, 0.1166, 0.1564, 0.1599, 0.2346, 0.3459, 0.4236, 0.4365, 0.4405, 0.4536, 0.4682, 0.4799, 0.4841, 0.5187, 0.5120, 0.4834, 0.4525, 0.4481, 0.4380, 0.4310, 0.4232, 0.4206, 0.4141, 0.4105, 0.4056, 0.3996, 0.3919, 0.3797, 0.3670, 0.3592, 0.3519, 0.3462]

New Loadshape.F10_Fishing_20250621
~   npts=96  interval=0.25
~   mult=[0.9837, 0.9741, 0.9752, 0.9776, 0.9839, 0.9594, 0.9601, 0.9455, 0.9304, 0.9206, 0.9101, 0.9014, 0.8923, 0.8909, 0.8899, 0.8854, 0.8851, 0.8557, 0.8276, 0.8117, 0.8047, 0.7761, 0.7702, 0.7695, 0.7669, 0.7568, 0.7497, 0.7280, 0.6952, 0.6434, 0.5763, 0.5009, 0.4625, 0.4151, 0.3454, 0.2684, 0.2694, 0.2276, 0.2273, 0.1706, 0.1679, 0.1628, 0.1421, 0.0570, 0.0503, 0.0505, 0.0507, 0.0509, 0.0512, 0.0516, 0.0520, 0.0525, 0.0529, 0.0541, 0.0554, 0.0566, 0.0578, 0.0614, 0.0649, 0.0683, 0.0717, 0.0753, 0.0786, 0.0817, 0.0846, 0.0879, 0.1251, 0.1351, 0.2086, 0.3359, 0.4493, 0.5058, 0.5579, 0.6350, 0.7304, 0.8425, 0.9682, 1.1159, 1.1927, 1.2289, 1.2669, 1.2747, 1.2667, 1.2688, 1.2697, 1.2727, 1.2648, 1.2667, 1.2654, 1.2440, 1.2175, 1.1766, 1.1345, 1.1025, 1.0726, 1.0470]

New Loadshape.F10_Coastal_Res_20250621
~   npts=96  interval=0.25
~   mult=[0.5738, 0.5596, 0.5512, 0.5431, 0.5367, 0.5217, 0.5204, 0.5108, 0.5010, 0.4961, 0.4907, 0.4864, 0.4818, 0.4856, 0.4894, 0.4914, 0.4956, 0.5385, 0.5753, 0.6154, 0.6584, 0.7009, 0.7570, 0.8142, 0.8658, 0.8593, 0.8559, 0.8356, 0.8022, 0.7206, 0.6243, 0.5227, 0.4625, 0.4052, 0.3282, 0.2472, 0.2395, 0.2076, 0.2131, 0.1649, 0.1679, 0.1688, 0.1530, 0.0639, 0.0587, 0.0611, 0.0634, 0.0658, 0.0682, 0.0698, 0.0713, 0.0729, 0.0744, 0.0764, 0.0785, 0.0806, 0.0826, 0.0839, 0.0852, 0.0864, 0.0877, 0.0868, 0.0860, 0.0853, 0.0846, 0.0862, 0.1207, 0.1284, 0.1955, 0.3209, 0.4364, 0.4988, 0.5579, 0.6350, 0.7304, 0.8425, 0.9682, 1.0935, 1.1445, 1.1540, 1.1635, 1.1453, 1.1117, 1.0860, 1.0581, 1.0240, 0.9788, 0.9383, 0.8922, 0.8527, 0.8089, 0.7552, 0.7007, 0.6724, 0.6452, 0.6206]
