// ============================================================================
// F10 LOAD SHAPES - Real Data for 2025-06-15
// Generated from CEB metering data + disaggregation
// ============================================================================

New Loadshape.F10_Town_20250615
~   npts=96  interval=0.25
~   mult=[0.3187, 0.3038, 0.2864, 0.2707, 0.2580, 0.2622, 0.2618, 0.2619, 0.2629, 0.2624, 0.2631, 0.2625, 0.2623, 0.2591, 0.2587, 0.2571, 0.2559, 0.2606, 0.2648, 0.2717, 0.2778, 0.3125, 0.3443, 0.3787, 0.4086, 0.4540, 0.4897, 0.5214, 0.5533, 0.5909, 0.6082, 0.6247, 0.7260, 0.7321, 0.5980, 0.5749, 0.4186, 0.3298, 0.2222, 0.1545, 0.1578, 0.1582, 0.1586, 0.1590, 0.1594, 0.1579, 0.1564, 0.1550, 0.1535, 0.1522, 0.1510, 0.1499, 0.1487, 0.1467, 0.1446, 0.1425, 0.1405, 0.1371, 0.1339, 0.1307, 0.1275, 0.1254, 0.1235, 0.1216, 0.1199, 0.1318, 0.1883, 0.2187, 0.2451, 0.2896, 0.3614, 0.3834, 0.3825, 0.4087, 0.3969, 0.4071, 0.4271, 0.4567, 0.4561, 0.4341, 0.4060, 0.4013, 0.3970, 0.3907, 0.3822, 0.3787, 0.3776, 0.3704, 0.3627, 0.3596, 0.3544, 0.3452, 0.3387, 0.3331, 0.3228, 0.3167]

New Loadshape.F10_Fishing_20250615
~   npts=96  interval=0.25
~   mult=[0.9561, 0.9518, 0.9410, 0.9372, 0.9461, 0.9482, 0.9336, 0.9210, 0.9116, 0.9008, 0.8945, 0.8839, 0.8744, 0.8638, 0.8623, 0.8569, 0.8530, 0.8218, 0.7943, 0.7788, 0.7638, 0.7466, 0.7323, 0.7302, 0.7239, 0.7122, 0.6910, 0.6700, 0.6539, 0.6029, 0.5407, 0.4870, 0.4991, 0.4589, 0.3417, 0.2993, 0.1983, 0.1456, 0.0912, 0.0587, 0.0552, 0.0541, 0.0529, 0.0516, 0.0503, 0.0505, 0.0507, 0.0509, 0.0512, 0.0516, 0.0520, 0.0525, 0.0529, 0.0541, 0.0554, 0.0566, 0.0578, 0.0614, 0.0649, 0.0683, 0.0717, 0.0753, 0.0786, 0.0817, 0.0846, 0.0993, 0.1506, 0.1848, 0.2179, 0.2812, 0.3833, 0.4443, 0.4844, 0.5722, 0.6192, 0.7148, 0.8542, 0.9826, 1.0625, 1.1035, 1.1368, 1.1416, 1.1482, 1.1504, 1.1465, 1.1461, 1.1535, 1.1430, 1.1316, 1.1194, 1.1009, 1.0699, 1.0468, 1.0225, 0.9839, 0.9577]

New Loadshape.F10_Coastal_Res_20250615
~   npts=96  interval=0.25
~   mult=[0.5577, 0.5468, 0.5319, 0.5207, 0.5160, 0.5156, 0.5061, 0.4976, 0.4908, 0.4854, 0.4823, 0.4769, 0.4722, 0.4708, 0.4742, 0.4756, 0.4777, 0.5171, 0.5522, 0.5904, 0.6250, 0.6743, 0.7198, 0.7726, 0.8173, 0.8087, 0.7889, 0.7691, 0.7545, 0.6753, 0.5857, 0.5082, 0.4991, 0.4480, 0.3246, 0.2756, 0.1762, 0.1328, 0.0855, 0.0567, 0.0552, 0.0561, 0.0569, 0.0578, 0.0587, 0.0611, 0.0634, 0.0658, 0.0682, 0.0698, 0.0713, 0.0729, 0.0744, 0.0764, 0.0785, 0.0806, 0.0826, 0.0839, 0.0852, 0.0864, 0.0877, 0.0868, 0.0860, 0.0853, 0.0846, 0.0974, 0.1453, 0.1755, 0.2042, 0.2686, 0.3723, 0.4382, 0.4844, 0.5722, 0.6192, 0.7148, 0.8542, 0.9628, 1.0195, 1.0363, 1.0440, 1.0256, 1.0077, 0.9847, 0.9554, 0.9221, 0.8926, 0.8467, 0.7979, 0.7673, 0.7314, 0.6867, 0.6465, 0.6236, 0.5919, 0.5677]
