// ============================================================================
// F10 LOAD SHAPES - Real Data for 2025-08-16
// Generated from CEB metering data + disaggregation
// ============================================================================

New Loadshape.F10_Town_20250816
~   npts=96  interval=0.25
~   mult=[0.3223, 0.3112, 0.2945, 0.2804, 0.2632, 0.2624, 0.2637, 0.2648, 0.2654, 0.2647, 0.2572, 0.2604, 0.2618, 0.2597, 0.2594, 0.2550, 0.2572, 0.2600, 0.2634, 0.2670, 0.2706, 0.3033, 0.3348, 0.3684, 0.4020, 0.4610, 0.5080, 0.5442, 0.5603, 0.5865, 0.5828, 0.5522, 0.5157, 0.5659, 0.5902, 0.5715, 0.5185, 0.3506, 0.2762, 0.1545, 0.1578, 0.1582, 0.1586, 0.1590, 0.1594, 0.1579, 0.1564, 0.1550, 0.1535, 0.1522, 0.1510, 0.1499, 0.1487, 0.1467, 0.1446, 0.1425, 0.1405, 0.1371, 0.1339, 0.1307, 0.1275, 0.1254, 0.1235, 0.1861, 0.2643, 0.3093, 0.3468, 0.4017, 0.4193, 0.4472, 0.4651, 0.4662, 0.4608, 0.4721, 0.4738, 0.4717, 0.4851, 0.5194, 0.5059, 0.4745, 0.4385, 0.4335, 0.4334, 0.4241, 0.4140, 0.4077, 0.4022, 0.3959, 0.3889, 0.3861, 0.3798, 0.3723, 0.3486, 0.3434, 0.3415, 0.3361]

New Loadshape.F10_Fishing_20250816
~   npts=96  interval=0.25
~   mult=[0.9669, 0.9752, 0.9678, 0.9706, 0.9652, 0.9491, 0.9407, 0.9312, 0.9200, 0.9089, 0.8746, 0.8766, 0.8727, 0.8656, 0.8647, 0.8501, 0.8573, 0.8199, 0.7902, 0.7655, 0.7442, 0.7248, 0.7121, 0.7104, 0.7120, 0.7231, 0.7169, 0.6994, 0.6622, 0.5984, 0.5181, 0.4305, 0.3545, 0.3547, 0.3372, 0.2975, 0.2456, 0.1548, 0.1133, 0.0587, 0.0552, 0.0541, 0.0529, 0.0516, 0.0503, 0.0505, 0.0507, 0.0509, 0.0512, 0.0516, 0.0520, 0.0525, 0.0529, 0.0541, 0.0554, 0.0566, 0.0578, 0.0614, 0.0649, 0.0683, 0.0717, 0.0753, 0.0786, 0.1250, 0.1866, 0.2331, 0.2775, 0.3394, 0.3727, 0.4342, 0.4933, 0.5402, 0.5837, 0.6609, 0.7392, 0.8280, 0.9702, 1.1174, 1.1784, 1.2061, 1.2279, 1.2330, 1.2536, 1.2485, 1.2419, 1.2337, 1.2285, 1.2217, 1.2133, 1.2022, 1.1797, 1.1537, 1.0776, 1.0543, 1.0406, 1.0165]

New Loadshape.F10_Coastal_Res_20250816
~   npts=96  interval=0.25
~   mult=[0.5640, 0.5602, 0.5470, 0.5392, 0.5265, 0.5161, 0.5099, 0.5031, 0.4954, 0.4898, 0.4716, 0.4730, 0.4713, 0.4717, 0.4756, 0.4718, 0.4801, 0.5159, 0.5494, 0.5804, 0.6089, 0.6546, 0.7000, 0.7516, 0.8039, 0.8211, 0.8185, 0.8028, 0.7641, 0.6703, 0.5613, 0.4492, 0.3545, 0.3463, 0.3204, 0.2740, 0.2183, 0.1411, 0.1062, 0.0567, 0.0552, 0.0561, 0.0569, 0.0578, 0.0587, 0.0611, 0.0634, 0.0658, 0.0682, 0.0698, 0.0713, 0.0729, 0.0744, 0.0764, 0.0785, 0.0806, 0.0826, 0.0839, 0.0852, 0.0864, 0.0877, 0.0868, 0.0860, 0.1305, 0.1866, 0.2286, 0.2676, 0.3225, 0.3494, 0.4148, 0.4792, 0.5328, 0.5837, 0.6609, 0.7392, 0.8280, 0.9702, 1.0950, 1.1307, 1.1326, 1.1276, 1.1078, 1.1002, 1.0686, 1.0350, 0.9926, 0.9506, 0.9050, 0.8555, 0.8240, 0.7838, 0.7405, 0.6656, 0.6429, 0.6260, 0.6025]
