// ============================================================================
// F11 LOAD SHAPES - Real Data for 2025-07-27
// Generated from CEB metering data + disaggregation
// ============================================================================

New Loadshape.F11_Hospital_20250727
~   npts=96  interval=0.25
~   mult=[0.4943, 0.7774, 0.6924, 0.7787, 1.0819, 1.2552, 1.3307, 1.2351, 1.3006, 1.2583, 1.2570, 1.1792, 0.9148, 1.0697, 1.0604, 0.9595, 0.8444, 0.5314, 0.3900, 0.4905, 0.3296, 0.4791, 0.4017, 0.4178, 0.4684, 0.4601, 0.3386, 0.3485, 0.4164, 0.5363, 0.6102, 0.6404, 0.5104, 0.3637, 0.2053, 0.1463, 0.1604, 1.4923, 1.6085, 1.6751, 1.5249, 1.5425, 1.5147, 1.4933, 1.5007, 1.4553, 1.4027, 1.3742, 1.3066, 1.2592, 1.2212, 1.1810, 1.1459, 1.1255, 1.1182, 1.1331, 1.2285, 1.2415, 1.2583, 1.2495, 1.2402, 1.2527, 1.2382, 1.2222, 0.8919, 0.7910, 0.7068, 0.5481, 0.2895, 0.1034, 0.1076, 0.1203, 0.3650, 0.3317, 0.3780, 0.4753, 0.4137, 0.8568, 0.9900, 1.0902, 1.1979, 1.4280, 1.4969, 1.5153, 1.5439, 1.5991, 1.2872, 1.4527, 1.5337, 1.6507, 1.8436, 1.9858, 2.0253, 1.9886, 2.0126, 1.9844]

New Loadshape.F11_Commercial_20250727
~   npts=96  interval=0.25
~   mult=[0.1412, 0.2120, 0.1795, 0.1910, 0.2497, 0.2930, 0.3143, 0.2952, 0.3147, 0.3069, 0.3091, 0.2924, 0.2287, 0.2652, 0.2608, 0.2340, 0.2043, 0.1349, 0.1034, 0.1353, 0.0942, 0.1543, 0.1425, 0.1607, 0.1929, 0.2103, 0.1693, 0.1884, 0.2411, 0.3413, 0.4224, 0.4783, 0.4083, 0.3046, 0.1797, 0.1335, 0.1524, 1.4435, 1.5841, 1.6794, 1.5560, 1.5663, 1.5304, 1.5011, 1.5007, 1.4476, 1.3877, 1.3520, 1.2782, 1.2385, 1.2078, 1.1745, 1.1459, 1.1161, 1.0994, 1.1043, 1.1867, 1.1917, 1.2001, 1.1839, 1.1673, 1.2081, 1.2234, 1.2370, 0.9246, 0.8244, 0.7406, 0.5773, 0.3065, 0.1040, 0.1026, 0.1086, 0.3111, 0.2613, 0.2732, 0.3118, 0.2433, 0.4732, 0.5100, 0.5200, 0.5241, 0.6062, 0.6158, 0.6032, 0.5938, 0.5951, 0.4627, 0.5034, 0.5112, 0.5391, 0.5894, 0.6210, 0.6188, 0.5980, 0.5953, 0.5770]

New Loadshape.F11_Apartments_20250727
~   npts=96  interval=0.25
~   mult=[0.2472, 0.3816, 0.3334, 0.3673, 0.4993, 0.5763, 0.6077, 0.5609, 0.5874, 0.5678, 0.5667, 0.5311, 0.4117, 0.4818, 0.4780, 0.4329, 0.3813, 0.2678, 0.2157, 0.2939, 0.2119, 0.3329, 0.2980, 0.3278, 0.3857, 0.3747, 0.2727, 0.2779, 0.3287, 0.3901, 0.4068, 0.3891, 0.2807, 0.1864, 0.0975, 0.0640, 0.0642, 0.5812, 0.6093, 0.6165, 0.5446, 0.5552, 0.5494, 0.5459, 0.5529, 0.5597, 0.5626, 0.5741, 0.5681, 0.5677, 0.5703, 0.5709, 0.5730, 0.5816, 0.5968, 0.6242, 0.6980, 0.7292, 0.7637, 0.7832, 0.8025, 0.8364, 0.8526, 0.8677, 0.6526, 0.6093, 0.5713, 0.4635, 0.2554, 0.0964, 0.1058, 0.1241, 0.3940, 0.3659, 0.4261, 0.5473, 0.4867, 0.9975, 1.1400, 1.2412, 1.3476, 1.5493, 1.5632, 1.5202, 1.4846, 1.4490, 1.0937, 1.1507, 1.1247, 1.1505, 1.2165, 1.2351, 1.1814, 1.1194, 1.0913, 1.0344]

New Loadshape.F11_MixedRes_20250727
~   npts=96  interval=0.25
~   mult=[0.2472, 0.3816, 0.3334, 0.3673, 0.4993, 0.5763, 0.6077, 0.5609, 0.5874, 0.5678, 0.5667, 0.5311, 0.4117, 0.4818, 0.4780, 0.4329, 0.3813, 0.2678, 0.2157, 0.2939, 0.2119, 0.3329, 0.2980, 0.3278, 0.3857, 0.3747, 0.2727, 0.2779, 0.3287, 0.3901, 0.4068, 0.3891, 0.2807, 0.1864, 0.0975, 0.0640, 0.0642, 0.5812, 0.6093, 0.6165, 0.5446, 0.5552, 0.5494, 0.5459, 0.5529, 0.5597, 0.5626, 0.5741, 0.5681, 0.5677, 0.5703, 0.5709, 0.5730, 0.5816, 0.5968, 0.6242, 0.6980, 0.7292, 0.7637, 0.7832, 0.8025, 0.8364, 0.8526, 0.8677, 0.6526, 0.6093, 0.5713, 0.4635, 0.2554, 0.0964, 0.1058, 0.1241, 0.3940, 0.3659, 0.4261, 0.5473, 0.4867, 0.9975, 1.1400, 1.2412, 1.3476, 1.5493, 1.5632, 1.5202, 1.4846, 1.4490, 1.0937, 1.1507, 1.1247, 1.1505, 1.2165, 1.2351, 1.1814, 1.1194, 1.0913, 1.0344]
