// ============================================================================
// F11 LOAD SHAPES - Real Data for 2025-07-23
// Generated from CEB metering data + disaggregation
// ============================================================================

New Loadshape.F11_Hospital_20250723
~   npts=96  interval=0.25
~   mult=[0.5412, 0.5729, 0.6069, 0.6468, 0.6875, 0.6849, 0.6927, 0.7101, 0.7250, 0.7117, 0.7080, 0.7039, 0.7002, 0.7287, 0.7605, 0.7934, 0.8188, 0.8094, 0.8132, 0.8164, 0.8250, 0.8706, 0.9218, 0.9804, 1.0159, 1.0954, 1.1467, 1.1769, 1.1998, 1.2242, 1.2310, 1.2658, 1.3075, 1.2916, 1.3271, 1.3020, 1.4430, 2.2726, 2.0652, 1.5248, 1.2326, 1.3305, 1.1853, 0.9187, 0.8859, 0.7050, 0.7269, 0.6780, 0.5389, 0.4648, 0.4155, 0.3616, 0.3179, 0.2933, 0.2483, 0.2520, 0.2119, 0.2604, 0.3121, 0.3634, 0.4124, 0.5049, 0.6368, 0.7651, 0.9154, 1.0294, 1.0928, 1.0753, 1.0279, 0.9851, 0.9936, 1.0001, 0.9888, 1.0029, 1.0279, 1.0553, 1.0952, 1.1276, 1.1447, 1.1533, 1.1565, 1.1453, 1.0799, 1.0169, 0.9648, 1.0251, 1.0881, 1.1490, 1.2156, 1.2687, 1.3145, 1.3554, 1.3951, 1.2104, 1.0020, 0.8170]

New Loadshape.F11_Commercial_20250723
~   npts=96  interval=0.25
~   mult=[0.1546, 0.1562, 0.1573, 0.1587, 0.1587, 0.1599, 0.1636, 0.1698, 0.1754, 0.1736, 0.1741, 0.1745, 0.1750, 0.1807, 0.1870, 0.1935, 0.1981, 0.2055, 0.2156, 0.2251, 0.2357, 0.2804, 0.3271, 0.3771, 0.4183, 0.5008, 0.5733, 0.6362, 0.6946, 0.7790, 0.8522, 0.9454, 1.0460, 1.0817, 1.1612, 1.1880, 1.3709, 2.1984, 2.0339, 1.5287, 1.2578, 1.3510, 1.1976, 0.9235, 0.8859, 0.7013, 0.7191, 0.6670, 0.5272, 0.4572, 0.4109, 0.3596, 0.3179, 0.2909, 0.2441, 0.2456, 0.2047, 0.2500, 0.2977, 0.3444, 0.3882, 0.4869, 0.6292, 0.7744, 0.9489, 1.0729, 1.1451, 1.1327, 1.0884, 0.9908, 0.9476, 0.9026, 0.8427, 0.7903, 0.7427, 0.6923, 0.6442, 0.6227, 0.5897, 0.5500, 0.5060, 0.4862, 0.4443, 0.4048, 0.3711, 0.3815, 0.3911, 0.3982, 0.4052, 0.4144, 0.4203, 0.4239, 0.4263, 0.3640, 0.2964, 0.2376]

New Loadshape.F11_Apartments_20250723
~   npts=96  interval=0.25
~   mult=[0.2706, 0.2812, 0.2922, 0.3051, 0.3173, 0.3145, 0.3164, 0.3225, 0.3274, 0.3212, 0.3192, 0.3171, 0.3151, 0.3282, 0.3429, 0.3580, 0.3698, 0.4078, 0.4497, 0.4892, 0.5304, 0.6050, 0.6839, 0.7693, 0.8366, 0.8920, 0.9237, 0.9384, 0.9472, 0.8903, 0.8207, 0.7691, 0.7191, 0.6619, 0.6304, 0.5696, 0.5772, 0.8851, 0.7823, 0.5612, 0.4402, 0.4788, 0.4299, 0.3358, 0.3264, 0.2712, 0.2915, 0.2833, 0.2343, 0.2095, 0.1940, 0.1748, 0.1590, 0.1516, 0.1325, 0.1388, 0.1204, 0.1530, 0.1894, 0.2278, 0.2669, 0.3371, 0.4385, 0.5432, 0.6698, 0.7930, 0.8834, 0.9094, 0.9070, 0.9190, 0.9763, 1.0316, 1.0674, 1.1064, 1.1586, 1.2153, 1.2885, 1.3127, 1.3181, 1.3129, 1.3011, 1.2426, 1.1278, 1.0201, 0.9277, 0.9289, 0.9245, 0.9101, 0.8914, 0.8842, 0.8674, 0.8431, 0.8138, 0.6814, 0.5433, 0.4259]

New Loadshape.F11_MixedRes_20250723
~   npts=96  interval=0.25
~   mult=[0.2706, 0.2812, 0.2922, 0.3051, 0.3173, 0.3145, 0.3164, 0.3225, 0.3274, 0.3212, 0.3192, 0.3171, 0.3151, 0.3282, 0.3429, 0.3580, 0.3698, 0.4078, 0.4497, 0.4892, 0.5304, 0.6050, 0.6839, 0.7693, 0.8366, 0.8920, 0.9237, 0.9384, 0.9472, 0.8903, 0.8207, 0.7691, 0.7191, 0.6619, 0.6304, 0.5696, 0.5772, 0.8851, 0.7823, 0.5612, 0.4402, 0.4788, 0.4299, 0.3358, 0.3264, 0.2712, 0.2915, 0.2833, 0.2343, 0.2095, 0.1940, 0.1748, 0.1590, 0.1516, 0.1325, 0.1388, 0.1204, 0.1530, 0.1894, 0.2278, 0.2669, 0.3371, 0.4385, 0.5432, 0.6698, 0.7930, 0.8834, 0.9094, 0.9070, 0.9190, 0.9763, 1.0316, 1.0674, 1.1064, 1.1586, 1.2153, 1.2885, 1.3127, 1.3181, 1.3129, 1.3011, 1.2426, 1.1278, 1.0201, 0.9277, 0.9289, 0.9245, 0.9101, 0.8914, 0.8842, 0.8674, 0.8431, 0.8138, 0.6814, 0.5433, 0.4259]
