// ============================================================================
// F11 LOAD SHAPES - Real Data for 2025-07-06
// Generated from CEB metering data + disaggregation
// ============================================================================

New Loadshape.F11_Hospital_20250706
~   npts=96  interval=0.25
~   mult=[0.1924, 0.1957, 0.1992, 0.2030, 0.2071, 0.2072, 0.2074, 0.2076, 0.2078, 0.2076, 0.4945, 0.9784, 1.3465, 1.5330, 1.5028, 1.4766, 1.4402, 1.3834, 1.3394, 1.1747, 1.1254, 1.0660, 0.6839, 0.4920, 0.4668, 0.3913, 0.3569, 0.2822, 0.3925, 0.5402, 0.6384, 0.6149, 0.5329, 0.6347, 0.5925, 0.7913, 0.6894, 0.6215, 0.7414, 1.5432, 1.8191, 1.7894, 1.7913, 1.7708, 1.7929, 1.7345, 1.7250, 1.6780, 1.6343, 1.6211, 1.5618, 1.4474, 1.4013, 1.3372, 1.3276, 1.2955, 1.2862, 1.2930, 1.3022, 1.3198, 0.9050, 0.7405, 0.5195, 0.4415, 0.4595, 0.4107, 0.4261, 0.5821, 0.4898, 0.4942, 0.5103, 0.5094, 0.5375, 0.5905, 0.6491, 0.6695, 0.7230, 0.7219, 0.7056, 0.6817, 0.6535, 0.6438, 0.6380, 0.6271, 0.6176, 0.6238, 0.6281, 0.6365, 0.6437, 0.6557, 0.6651, 0.6724, 0.6869, 0.6598, 0.6409, 0.6334]

New Loadshape.F11_Commercial_20250706
~   npts=96  interval=0.25
~   mult=[0.0550, 0.0534, 0.0516, 0.0498, 0.0478, 0.0484, 0.0490, 0.0496, 0.0503, 0.0506, 0.1216, 0.2426, 0.3366, 0.3801, 0.3695, 0.3601, 0.3484, 0.3513, 0.3551, 0.3239, 0.3215, 0.3433, 0.2427, 0.1892, 0.1922, 0.1789, 0.1784, 0.1526, 0.2273, 0.3438, 0.4420, 0.4592, 0.4263, 0.5315, 0.5184, 0.7220, 0.6549, 0.6012, 0.7302, 1.5471, 1.8562, 1.8170, 1.8098, 1.7800, 1.7929, 1.7253, 1.7065, 1.6509, 1.5987, 1.5945, 1.5446, 1.4394, 1.4013, 1.3260, 1.3052, 1.2626, 1.2423, 1.2411, 1.2420, 1.2506, 0.8517, 0.7141, 0.5133, 0.4468, 0.4763, 0.4280, 0.4465, 0.6132, 0.5186, 0.4971, 0.4867, 0.4597, 0.4581, 0.4653, 0.4690, 0.4392, 0.4253, 0.3987, 0.3635, 0.3251, 0.2859, 0.2733, 0.2625, 0.2496, 0.2376, 0.2322, 0.2258, 0.2206, 0.2146, 0.2142, 0.2126, 0.2103, 0.2099, 0.1984, 0.1896, 0.1842]

New Loadshape.F11_Apartments_20250706
~   npts=96  interval=0.25
~   mult=[0.0962, 0.0960, 0.0959, 0.0957, 0.0956, 0.0952, 0.0947, 0.0943, 0.0938, 0.0937, 0.2229, 0.4407, 0.6059, 0.6905, 0.6775, 0.6663, 0.6504, 0.6971, 0.7407, 0.7039, 0.7234, 0.7408, 0.5074, 0.3860, 0.3844, 0.3186, 0.2875, 0.2250, 0.3099, 0.3929, 0.4256, 0.3736, 0.2931, 0.3253, 0.2814, 0.3462, 0.2757, 0.2420, 0.2808, 0.5679, 0.6497, 0.6440, 0.6497, 0.6473, 0.6605, 0.6671, 0.6918, 0.7011, 0.7106, 0.7308, 0.7294, 0.6997, 0.7006, 0.6910, 0.7086, 0.7136, 0.7308, 0.7595, 0.7904, 0.8273, 0.5856, 0.4944, 0.3578, 0.3134, 0.3362, 0.3164, 0.3444, 0.4923, 0.4322, 0.4611, 0.5014, 0.5254, 0.5803, 0.6514, 0.7317, 0.7710, 0.8506, 0.8405, 0.8125, 0.7761, 0.7352, 0.6985, 0.6663, 0.6291, 0.5939, 0.5653, 0.5337, 0.5042, 0.4721, 0.4570, 0.4388, 0.4182, 0.4007, 0.3714, 0.3475, 0.3302]

New Loadshape.F11_MixedRes_20250706
~   npts=96  interval=0.25
~   mult=[0.0962, 0.0960, 0.0959, 0.0957, 0.0956, 0.0952, 0.0947, 0.0943, 0.0938, 0.0937, 0.2229, 0.4407, 0.6059, 0.6905, 0.6775, 0.6663, 0.6504, 0.6971, 0.7407, 0.7039, 0.7234, 0.7408, 0.5074, 0.3860, 0.3844, 0.3186, 0.2875, 0.2250, 0.3099, 0.3929, 0.4256, 0.3736, 0.2931, 0.3253, 0.2814, 0.3462, 0.2757, 0.2420, 0.2808, 0.5679, 0.6497, 0.6440, 0.6497, 0.6473, 0.6605, 0.6671, 0.6918, 0.7011, 0.7106, 0.7308, 0.7294, 0.6997, 0.7006, 0.6910, 0.7086, 0.7136, 0.7308, 0.7595, 0.7904, 0.8273, 0.5856, 0.4944, 0.3578, 0.3134, 0.3362, 0.3164, 0.3444, 0.4923, 0.4322, 0.4611, 0.5014, 0.5254, 0.5803, 0.6514, 0.7317, 0.7710, 0.8506, 0.8405, 0.8125, 0.7761, 0.7352, 0.6985, 0.6663, 0.6291, 0.5939, 0.5653, 0.5337, 0.5042, 0.4721, 0.4570, 0.4388, 0.4182, 0.4007, 0.3714, 0.3475, 0.3302]
