// ============================================================================
// F11 LOAD SHAPES - Real Data for 2025-08-21
// Generated from CEB metering data + disaggregation
// ============================================================================

New Loadshape.F11_Hospital_20250821
~   npts=96  interval=0.25
~   mult=[0.3533, 0.2851, 0.3518, 0.4199, 0.2071, 0.2072, 0.2404, 0.2521, 0.2078, 0.2076, 0.2074, 0.2072, 0.2602, 0.2072, 0.2074, 0.2076, 0.2078, 0.1953, 0.1850, 0.1761, 0.1686, 0.3085, 0.3598, 0.4026, 0.3687, 0.4246, 0.4726, 0.5080, 0.5852, 0.7231, 0.8652, 0.9540, 1.0200, 0.9785, 1.1045, 1.2224, 1.3010, 1.2898, 1.3342, 1.3767, 1.3725, 1.2618, 1.1508, 1.0175, 0.9826, 0.9762, 1.0672, 1.0286, 0.9927, 0.9591, 0.9919, 1.0605, 1.1099, 1.0653, 0.9892, 0.9712, 0.9577, 0.9225, 0.9270, 0.9194, 0.9293, 0.8662, 0.8110, 0.7879, 0.7775, 0.7721, 0.7850, 0.7831, 0.7863, 0.7907, 0.7802, 0.7821, 0.7807, 0.7420, 0.6500, 0.6959, 0.6830, 0.7070, 0.7126, 0.7176, 0.7565, 0.7847, 0.7739, 0.7653, 0.7096, 0.7157, 0.7615, 0.6956, 0.5354, 0.7328, 0.6039, 0.4802, 0.6255, 0.6007, 0.5873, 0.5489]

New Loadshape.F11_Commercial_20250821
~   npts=96  interval=0.25
~   mult=[0.1009, 0.0777, 0.0912, 0.1030, 0.0478, 0.0484, 0.0568, 0.0603, 0.0503, 0.0506, 0.0510, 0.0514, 0.0650, 0.0514, 0.0510, 0.0506, 0.0503, 0.0496, 0.0490, 0.0486, 0.0482, 0.0993, 0.1277, 0.1549, 0.1518, 0.1941, 0.2363, 0.2746, 0.3388, 0.4602, 0.5990, 0.7125, 0.8160, 0.8195, 0.9665, 1.1154, 1.2359, 1.2476, 1.3140, 1.3802, 1.4005, 1.2813, 1.1628, 1.0228, 0.9826, 0.9710, 1.0558, 1.0120, 0.9712, 0.9434, 0.9810, 1.0547, 1.1099, 1.0564, 0.9725, 0.9465, 0.9251, 0.8855, 0.8841, 0.8711, 0.8746, 0.8353, 0.8013, 0.7974, 0.8060, 0.8048, 0.8226, 0.8249, 0.8325, 0.7953, 0.7442, 0.7059, 0.6653, 0.5847, 0.4696, 0.4565, 0.4018, 0.3904, 0.3671, 0.3423, 0.3310, 0.3331, 0.3184, 0.3046, 0.2729, 0.2664, 0.2737, 0.2410, 0.1785, 0.2393, 0.1931, 0.1502, 0.1911, 0.1806, 0.1737, 0.1596]

New Loadshape.F11_Apartments_20250821
~   npts=96  interval=0.25
~   mult=[0.1766, 0.1399, 0.1694, 0.1981, 0.0956, 0.0952, 0.1098, 0.1145, 0.0938, 0.0937, 0.0935, 0.0933, 0.1171, 0.0933, 0.0935, 0.0937, 0.0938, 0.0984, 0.1023, 0.1056, 0.1084, 0.2143, 0.2670, 0.3159, 0.3037, 0.3458, 0.3807, 0.4050, 0.4620, 0.5259, 0.5768, 0.5797, 0.5610, 0.5015, 0.5247, 0.5348, 0.5204, 0.5023, 0.5054, 0.5067, 0.4902, 0.4541, 0.4174, 0.3719, 0.3620, 0.3754, 0.4280, 0.4297, 0.4316, 0.4324, 0.4633, 0.5127, 0.5550, 0.5505, 0.5279, 0.5350, 0.5442, 0.5419, 0.5626, 0.5763, 0.6013, 0.5783, 0.5585, 0.5594, 0.5689, 0.5948, 0.6346, 0.6622, 0.6938, 0.7377, 0.7667, 0.8068, 0.8428, 0.8185, 0.7326, 0.8014, 0.8036, 0.8231, 0.8205, 0.8170, 0.8510, 0.8513, 0.8082, 0.7677, 0.6823, 0.6486, 0.6470, 0.5510, 0.3926, 0.5107, 0.3985, 0.2987, 0.3649, 0.3381, 0.3185, 0.2862]

New Loadshape.F11_MixedRes_20250821
~   npts=96  interval=0.25
~   mult=[0.1766, 0.1399, 0.1694, 0.1981, 0.0956, 0.0952, 0.1098, 0.1145, 0.0938, 0.0937, 0.0935, 0.0933, 0.1171, 0.0933, 0.0935, 0.0937, 0.0938, 0.0984, 0.1023, 0.1056, 0.1084, 0.2143, 0.2670, 0.3159, 0.3037, 0.3458, 0.3807, 0.4050, 0.4620, 0.5259, 0.5768, 0.5797, 0.5610, 0.5015, 0.5247, 0.5348, 0.5204, 0.5023, 0.5054, 0.5067, 0.4902, 0.4541, 0.4174, 0.3719, 0.3620, 0.3754, 0.4280, 0.4297, 0.4316, 0.4324, 0.4633, 0.5127, 0.5550, 0.5505, 0.5279, 0.5350, 0.5442, 0.5419, 0.5626, 0.5763, 0.6013, 0.5783, 0.5585, 0.5594, 0.5689, 0.5948, 0.6346, 0.6622, 0.6938, 0.7377, 0.7667, 0.8068, 0.8428, 0.8185, 0.7326, 0.8014, 0.8036, 0.8231, 0.8205, 0.8170, 0.8510, 0.8513, 0.8082, 0.7677, 0.6823, 0.6486, 0.6470, 0.5510, 0.3926, 0.5107, 0.3985, 0.2987, 0.3649, 0.3381, 0.3185, 0.2862]
