// ============================================================================
// F11 LOAD SHAPES - Real Data for 2025-05-07
// Generated from CEB metering data + disaggregation
// ============================================================================

New Loadshape.F11_Hospital_20250507
~   npts=96  interval=0.25
~   mult=[0.7865, 1.0233, 1.2192, 1.3131, 1.3498, 1.2565, 1.2288, 1.0499, 1.2646, 1.3727, 1.4265, 1.4100, 1.4189, 1.4658, 1.3124, 1.3266, 1.2941, 1.1994, 1.1753, 1.1366, 1.0760, 1.0201, 0.9174, 1.0115, 0.8892, 1.0363, 1.0058, 1.0432, 1.1000, 1.1364, 1.1795, 1.2668, 1.3283, 1.3944, 1.4995, 1.5598, 1.6040, 1.6422, 1.6598, 1.6955, 1.6973, 1.7140, 1.7241, 1.6875, 1.6914, 1.6158, 1.5894, 1.6081, 1.5211, 1.5067, 1.4104, 1.2767, 1.2462, 1.1899, 1.1590, 1.0951, 1.0251, 1.0543, 1.0691, 1.0225, 1.0310, 1.0116, 0.9574, 0.9266, 0.9456, 0.9603, 0.8870, 0.8086, 0.7519, 0.7734, 0.7763, 0.7380, 0.7258, 0.6465, 0.6328, 0.5497, 0.3827, 0.3679, 0.3052, 0.2413, 0.2846, 0.1692, 0.1192, 0.1229, 0.1269, 0.1323, 0.3159, 0.5151, 0.4777, 0.6431, 0.7604, 0.7818, 0.9395, 1.0322, 1.1555, 0.9625]

New Loadshape.F11_Commercial_20250507
~   npts=96  interval=0.25
~   mult=[0.2247, 0.2791, 0.3161, 0.3221, 0.3115, 0.2933, 0.2903, 0.2510, 0.3060, 0.3348, 0.3508, 0.3496, 0.3547, 0.3634, 0.3227, 0.3236, 0.3131, 0.3045, 0.3116, 0.3134, 0.3074, 0.3285, 0.3255, 0.3891, 0.3662, 0.4737, 0.5029, 0.5639, 0.6369, 0.7232, 0.8166, 0.9461, 1.0626, 1.1678, 1.3121, 1.4233, 1.5238, 1.5886, 1.6346, 1.6998, 1.7320, 1.7404, 1.7420, 1.6963, 1.6914, 1.6072, 1.5724, 1.5821, 1.4880, 1.4820, 1.3949, 1.2697, 1.2462, 1.1799, 1.1395, 1.0672, 0.9901, 1.0120, 1.0196, 0.9689, 0.9703, 0.9756, 0.9459, 0.9378, 0.9802, 1.0009, 0.9295, 0.8518, 0.7961, 0.7779, 0.7404, 0.6661, 0.6186, 0.5094, 0.4572, 0.3606, 0.2251, 0.2032, 0.1572, 0.1151, 0.1245, 0.0718, 0.0490, 0.0489, 0.0488, 0.0493, 0.1135, 0.1785, 0.1592, 0.2100, 0.2431, 0.2445, 0.2871, 0.3104, 0.3418, 0.2799]

New Loadshape.F11_Apartments_20250507
~   npts=96  interval=0.25
~   mult=[0.3932, 0.5024, 0.5870, 0.6194, 0.6230, 0.5769, 0.5612, 0.4768, 0.5711, 0.6194, 0.6431, 0.6351, 0.6385, 0.6602, 0.5917, 0.5986, 0.5845, 0.6044, 0.6500, 0.6811, 0.6917, 0.7089, 0.6807, 0.7937, 0.7323, 0.8438, 0.8103, 0.8318, 0.8684, 0.8265, 0.7863, 0.7697, 0.7306, 0.7147, 0.7123, 0.6824, 0.6416, 0.6396, 0.6287, 0.6240, 0.6062, 0.6169, 0.6253, 0.6168, 0.6231, 0.6215, 0.6375, 0.6719, 0.6614, 0.6792, 0.6587, 0.6172, 0.6231, 0.6149, 0.6186, 0.6032, 0.5824, 0.6193, 0.6489, 0.6409, 0.6671, 0.6754, 0.6593, 0.6579, 0.6919, 0.7398, 0.7170, 0.6838, 0.6634, 0.7216, 0.7628, 0.7612, 0.7836, 0.7132, 0.7133, 0.6331, 0.4502, 0.4284, 0.3514, 0.2747, 0.3201, 0.1835, 0.1245, 0.1233, 0.1220, 0.1199, 0.2684, 0.4080, 0.3503, 0.4482, 0.5017, 0.4863, 0.5480, 0.5811, 0.6266, 0.5017]

New Loadshape.F11_MixedRes_20250507
~   npts=96  interval=0.25
~   mult=[0.3932, 0.5024, 0.5870, 0.6194, 0.6230, 0.5769, 0.5612, 0.4768, 0.5711, 0.6194, 0.6431, 0.6351, 0.6385, 0.6602, 0.5917, 0.5986, 0.5845, 0.6044, 0.6500, 0.6811, 0.6917, 0.7089, 0.6807, 0.7937, 0.7323, 0.8438, 0.8103, 0.8318, 0.8684, 0.8265, 0.7863, 0.7697, 0.7306, 0.7147, 0.7123, 0.6824, 0.6416, 0.6396, 0.6287, 0.6240, 0.6062, 0.6169, 0.6253, 0.6168, 0.6231, 0.6215, 0.6375, 0.6719, 0.6614, 0.6792, 0.6587, 0.6172, 0.6231, 0.6149, 0.6186, 0.6032, 0.5824, 0.6193, 0.6489, 0.6409, 0.6671, 0.6754, 0.6593, 0.6579, 0.6919, 0.7398, 0.7170, 0.6838, 0.6634, 0.7216, 0.7628, 0.7612, 0.7836, 0.7132, 0.7133, 0.6331, 0.4502, 0.4284, 0.3514, 0.2747, 0.3201, 0.1835, 0.1245, 0.1233, 0.1220, 0.1199, 0.2684, 0.4080, 0.3503, 0.4482, 0.5017, 0.4863, 0.5480, 0.5811, 0.6266, 0.5017]
