// ============================================================================
// F11 LOAD SHAPES - Real Data for 2025-07-31
// Generated from CEB metering data + disaggregation
// ============================================================================

New Loadshape.F11_Hospital_20250731
~   npts=96  interval=0.25
~   mult=[0.7107, 0.6767, 0.8224, 0.8133, 0.7863, 0.7949, 0.7853, 0.5433, 0.2425, 0.2076, 0.2074, 0.2072, 0.2070, 0.2072, 0.2074, 0.2076, 0.2078, 0.1953, 0.1850, 0.1761, 0.1686, 0.1584, 0.2181, 0.3733, 0.4339, 0.3997, 0.3485, 0.3317, 0.3045, 0.3798, 0.4581, 0.6814, 0.8328, 0.8884, 1.0101, 0.9994, 0.8164, 1.0172, 1.0555, 1.0720, 1.0715, 1.0898, 1.1116, 0.8644, 1.0374, 1.0508, 1.0153, 0.8910, 0.8367, 0.8732, 0.9082, 0.8449, 0.7963, 0.7365, 0.6110, 0.6010, 0.7283, 0.7687, 0.7415, 0.6730, 0.7752, 0.8053, 0.8433, 0.7964, 0.7362, 0.6664, 0.6695, 0.5440, 0.4158, 0.3032, 0.2487, 0.2279, 0.2623, 0.3109, 0.3013, 0.2784, 0.2260, 0.2155, 0.1756, 0.3326, 0.4598, 0.4026, 0.1192, 0.1454, 0.1725, 0.2414, 0.1384, 0.1451, 0.1528, 0.1607, 0.1632, 0.2025, 0.3568, 0.3183, 0.3386, 0.2457]

New Loadshape.F11_Commercial_20250731
~   npts=96  interval=0.25
~   mult=[0.2031, 0.1845, 0.2132, 0.1995, 0.1814, 0.1856, 0.1855, 0.1299, 0.0587, 0.0506, 0.0510, 0.0514, 0.0518, 0.0514, 0.0510, 0.0506, 0.0503, 0.0496, 0.0490, 0.0486, 0.0482, 0.0510, 0.0774, 0.1436, 0.1786, 0.1827, 0.1742, 0.1793, 0.1763, 0.2417, 0.3172, 0.5089, 0.6662, 0.7441, 0.8838, 0.9119, 0.7756, 0.9840, 1.0395, 1.0747, 1.0934, 1.1066, 1.1231, 0.8689, 1.0374, 1.0452, 1.0044, 0.8766, 0.8185, 0.8589, 0.8982, 0.8403, 0.7963, 0.7304, 0.6008, 0.5857, 0.7034, 0.7378, 0.7072, 0.6376, 0.7296, 0.7766, 0.8332, 0.8061, 0.7631, 0.6946, 0.7015, 0.5731, 0.4403, 0.3050, 0.2372, 0.2057, 0.2236, 0.2450, 0.2177, 0.1826, 0.1329, 0.1190, 0.0905, 0.1586, 0.2012, 0.1709, 0.0490, 0.0579, 0.0663, 0.0898, 0.0497, 0.0503, 0.0509, 0.0525, 0.0522, 0.0633, 0.1090, 0.0957, 0.1001, 0.0714]

New Loadshape.F11_Apartments_20250731
~   npts=96  interval=0.25
~   mult=[0.3554, 0.3322, 0.3960, 0.3836, 0.3629, 0.3650, 0.3586, 0.2468, 0.1095, 0.0937, 0.0935, 0.0933, 0.0932, 0.0933, 0.0935, 0.0937, 0.0938, 0.0984, 0.1023, 0.1056, 0.1084, 0.1101, 0.1618, 0.2929, 0.3573, 0.3255, 0.2807, 0.2645, 0.2404, 0.2762, 0.3054, 0.4140, 0.4580, 0.4553, 0.4798, 0.4372, 0.3266, 0.3961, 0.3998, 0.3945, 0.3827, 0.3922, 0.4032, 0.3160, 0.3822, 0.4041, 0.4072, 0.3722, 0.3638, 0.3936, 0.4242, 0.4085, 0.3981, 0.3806, 0.3261, 0.3311, 0.4138, 0.4515, 0.4500, 0.4218, 0.5016, 0.5376, 0.5807, 0.5654, 0.5387, 0.5134, 0.5412, 0.4601, 0.3669, 0.2829, 0.2444, 0.2351, 0.2832, 0.3430, 0.3396, 0.3206, 0.2659, 0.2508, 0.2022, 0.3786, 0.5173, 0.4367, 0.1245, 0.1458, 0.1659, 0.2187, 0.1176, 0.1150, 0.1120, 0.1120, 0.1077, 0.1259, 0.2081, 0.1792, 0.1836, 0.1281]

New Loadshape.F11_MixedRes_20250731
~   npts=96  interval=0.25
~   mult=[0.3554, 0.3322, 0.3960, 0.3836, 0.3629, 0.3650, 0.3586, 0.2468, 0.1095, 0.0937, 0.0935, 0.0933, 0.0932, 0.0933, 0.0935, 0.0937, 0.0938, 0.0984, 0.1023, 0.1056, 0.1084, 0.1101, 0.1618, 0.2929, 0.3573, 0.3255, 0.2807, 0.2645, 0.2404, 0.2762, 0.3054, 0.4140, 0.4580, 0.4553, 0.4798, 0.4372, 0.3266, 0.3961, 0.3998, 0.3945, 0.3827, 0.3922, 0.4032, 0.3160, 0.3822, 0.4041, 0.4072, 0.3722, 0.3638, 0.3936, 0.4242, 0.4085, 0.3981, 0.3806, 0.3261, 0.3311, 0.4138, 0.4515, 0.4500, 0.4218, 0.5016, 0.5376, 0.5807, 0.5654, 0.5387, 0.5134, 0.5412, 0.4601, 0.3669, 0.2829, 0.2444, 0.2351, 0.2832, 0.3430, 0.3396, 0.3206, 0.2659, 0.2508, 0.2022, 0.3786, 0.5173, 0.4367, 0.1245, 0.1458, 0.1659, 0.2187, 0.1176, 0.1150, 0.1120, 0.1120, 0.1077, 0.1259, 0.2081, 0.1792, 0.1836, 0.1281]
