// ============================================================================
// F11 LOAD SHAPES - Real Data for 2025-08-04
// Generated from CEB metering data + disaggregation
// ============================================================================

New Loadshape.F11_Hospital_20250804
~   npts=96  interval=0.25
~   mult=[0.7213, 0.5946, 0.5633, 0.7199, 0.7749, 0.6209, 0.6533, 0.8033, 0.9047, 0.8196, 0.8234, 0.7534, 0.7217, 0.7326, 0.7880, 0.8023, 0.7591, 0.6434, 0.5498, 0.4638, 0.5167, 0.6229, 0.6137, 0.6971, 0.6765, 0.7257, 0.7703, 0.8193, 0.8581, 0.9029, 0.8475, 0.7616, 0.8142, 0.9084, 1.0288, 1.0432, 1.0317, 1.2145, 1.2384, 1.2923, 1.3795, 1.3807, 1.4975, 1.5080, 1.3961, 1.3384, 1.2704, 1.2521, 1.2979, 1.2355, 1.2669, 1.2429, 1.0689, 0.9045, 0.9512, 0.7956, 0.7889, 0.7406, 0.7091, 0.6305, 0.6543, 0.6330, 0.6606, 0.6970, 0.6713, 0.7109, 0.5556, 0.3491, 0.2517, 0.2575, 0.3435, 0.1566, 0.1005, 0.1013, 0.1022, 0.1031, 0.1039, 0.1187, 0.1080, 0.1102, 0.1126, 0.1158, 0.1192, 0.1229, 0.1269, 0.1323, 0.1384, 0.1451, 0.1528, 0.1578, 0.1632, 0.1692, 0.1758, 0.1796, 0.1836, 0.1878]

New Loadshape.F11_Commercial_20250804
~   npts=96  interval=0.25
~   mult=[0.2061, 0.1622, 0.1460, 0.1766, 0.1788, 0.1450, 0.1543, 0.1920, 0.2189, 0.1999, 0.2025, 0.1868, 0.1804, 0.1816, 0.1938, 0.1957, 0.1837, 0.1634, 0.1458, 0.1279, 0.1476, 0.2006, 0.2178, 0.2681, 0.2786, 0.3318, 0.3852, 0.4428, 0.4968, 0.5746, 0.5867, 0.5688, 0.6514, 0.7608, 0.9002, 0.9520, 0.9801, 1.1748, 1.2197, 1.2955, 1.4076, 1.4020, 1.5130, 1.5159, 1.3961, 1.3313, 1.2568, 1.2319, 1.2697, 1.2153, 1.2529, 1.2360, 1.0689, 0.8970, 0.9351, 0.7754, 0.7620, 0.7109, 0.6763, 0.5974, 0.6158, 0.6104, 0.6527, 0.7054, 0.6958, 0.7409, 0.5823, 0.3677, 0.2665, 0.2590, 0.3276, 0.1414, 0.0857, 0.0799, 0.0738, 0.0676, 0.0611, 0.0655, 0.0556, 0.0525, 0.0492, 0.0491, 0.0490, 0.0489, 0.0488, 0.0493, 0.0497, 0.0503, 0.0509, 0.0515, 0.0522, 0.0529, 0.0537, 0.0540, 0.0543, 0.0546]

New Loadshape.F11_Apartments_20250804
~   npts=96  interval=0.25
~   mult=[0.3606, 0.2919, 0.2712, 0.3396, 0.3577, 0.2851, 0.2983, 0.3648, 0.4086, 0.3698, 0.3712, 0.3393, 0.3248, 0.3300, 0.3553, 0.3620, 0.3428, 0.3242, 0.3041, 0.2780, 0.3322, 0.4328, 0.4553, 0.5470, 0.5571, 0.5909, 0.6205, 0.6532, 0.6774, 0.6567, 0.5650, 0.4627, 0.4478, 0.4655, 0.4887, 0.4564, 0.4127, 0.4730, 0.4691, 0.4756, 0.4927, 0.4969, 0.5431, 0.5512, 0.5143, 0.5148, 0.5095, 0.5231, 0.5643, 0.5570, 0.5917, 0.6008, 0.5344, 0.4674, 0.5076, 0.4383, 0.4482, 0.4350, 0.4304, 0.3952, 0.4234, 0.4226, 0.4549, 0.4948, 0.4912, 0.5477, 0.4492, 0.2952, 0.2221, 0.2403, 0.3375, 0.1615, 0.1085, 0.1118, 0.1152, 0.1187, 0.1223, 0.1382, 0.1243, 0.1254, 0.1266, 0.1256, 0.1245, 0.1233, 0.1220, 0.1199, 0.1176, 0.1150, 0.1120, 0.1100, 0.1077, 0.1052, 0.1025, 0.1011, 0.0996, 0.0979]

New Loadshape.F11_MixedRes_20250804
~   npts=96  interval=0.25
~   mult=[0.3606, 0.2919, 0.2712, 0.3396, 0.3577, 0.2851, 0.2983, 0.3648, 0.4086, 0.3698, 0.3712, 0.3393, 0.3248, 0.3300, 0.3553, 0.3620, 0.3428, 0.3242, 0.3041, 0.2780, 0.3322, 0.4328, 0.4553, 0.5470, 0.5571, 0.5909, 0.6205, 0.6532, 0.6774, 0.6567, 0.5650, 0.4627, 0.4478, 0.4655, 0.4887, 0.4564, 0.4127, 0.4730, 0.4691, 0.4756, 0.4927, 0.4969, 0.5431, 0.5512, 0.5143, 0.5148, 0.5095, 0.5231, 0.5643, 0.5570, 0.5917, 0.6008, 0.5344, 0.4674, 0.5076, 0.4383, 0.4482, 0.4350, 0.4304, 0.3952, 0.4234, 0.4226, 0.4549, 0.4948, 0.4912, 0.5477, 0.4492, 0.2952, 0.2221, 0.2403, 0.3375, 0.1615, 0.1085, 0.1118, 0.1152, 0.1187, 0.1223, 0.1382, 0.1243, 0.1254, 0.1266, 0.1256, 0.1245, 0.1233, 0.1220, 0.1199, 0.1176, 0.1150, 0.1120, 0.1100, 0.1077, 0.1052, 0.1025, 0.1011, 0.0996, 0.0979]
