// ============================================================================
// F11 LOAD SHAPES - Real Data for 2025-07-24
// Generated from CEB metering data + disaggregation
// ============================================================================

New Loadshape.F11_Hospital_20250724
~   npts=96  interval=0.25
~   mult=[0.6264, 0.4106, 0.2018, 0.2030, 0.2071, 0.2072, 0.2074, 0.2076, 0.2078, 0.2076, 0.2074, 0.2072, 0.2070, 0.2072, 0.2074, 0.2076, 0.2078, 0.1953, 0.1850, 1.1848, 0.1686, 0.1584, 0.1502, 0.1435, 0.1378, 0.1361, 0.1344, 0.1329, 0.1315, 0.1340, 0.1365, 0.1390, 0.1416, 0.1431, 0.3290, 0.5667, 0.4751, 0.5604, 0.7173, 0.9027, 0.8167, 0.7046, 0.6917, 0.7079, 0.7122, 0.7179, 0.6424, 0.6030, 0.5415, 0.6638, 0.7214, 0.7920, 0.8583, 0.8455, 0.9207, 0.9916, 1.0756, 1.1272, 1.0929, 1.1223, 1.1855, 1.2438, 1.2610, 1.1927, 1.1740, 1.1401, 1.0997, 1.0461, 0.9813, 0.9678, 0.9669, 0.9640, 0.9766, 0.9945, 1.0069, 1.0349, 1.0705, 1.0830, 1.0822, 1.0830, 1.0696, 1.0931, 1.1196, 1.1450, 1.1709, 1.1976, 1.2381, 1.2793, 1.3279, 1.3347, 1.3548, 1.3749, 1.3873, 1.3669, 1.3482, 1.3426]

New Loadshape.F11_Commercial_20250724
~   npts=96  interval=0.25
~   mult=[0.1790, 0.1120, 0.0523, 0.0498, 0.0478, 0.0484, 0.0490, 0.0496, 0.0503, 0.0506, 0.0510, 0.0514, 0.0518, 0.0514, 0.0510, 0.0506, 0.0503, 0.0496, 0.0490, 0.3267, 0.0482, 0.0510, 0.0533, 0.0552, 0.0568, 0.0622, 0.0672, 0.0719, 0.0762, 0.0853, 0.0945, 0.1038, 0.1133, 0.1199, 0.2879, 0.5171, 0.4514, 0.5421, 0.7064, 0.9050, 0.8333, 0.7155, 0.6988, 0.7116, 0.7122, 0.7141, 0.6355, 0.5932, 0.5298, 0.6529, 0.7135, 0.7876, 0.8583, 0.8384, 0.9052, 0.9664, 1.0389, 1.0819, 1.0423, 1.0634, 1.1158, 1.1995, 1.2459, 1.2071, 1.2170, 1.1883, 1.1524, 1.1020, 1.0390, 0.9734, 0.9222, 0.8701, 0.8323, 0.7836, 0.7275, 0.6789, 0.6297, 0.5981, 0.5575, 0.5165, 0.4680, 0.4640, 0.4606, 0.4558, 0.4503, 0.4457, 0.4451, 0.4433, 0.4426, 0.4359, 0.4332, 0.4299, 0.4239, 0.4110, 0.3988, 0.3904]

New Loadshape.F11_Apartments_20250724
~   npts=96  interval=0.25
~   mult=[0.3132, 0.2016, 0.0972, 0.0957, 0.0956, 0.0952, 0.0947, 0.0943, 0.0938, 0.0937, 0.0935, 0.0933, 0.0932, 0.0933, 0.0935, 0.0937, 0.0938, 0.0984, 0.1023, 0.7100, 0.1084, 0.1101, 0.1114, 0.1126, 0.1135, 0.1108, 0.1083, 0.1060, 0.1038, 0.0975, 0.0910, 0.0845, 0.0779, 0.0734, 0.1563, 0.2479, 0.1901, 0.2182, 0.2717, 0.3322, 0.2917, 0.2536, 0.2509, 0.2588, 0.2624, 0.2761, 0.2576, 0.2519, 0.2355, 0.2992, 0.3369, 0.3829, 0.4291, 0.4369, 0.4914, 0.5462, 0.6111, 0.6621, 0.6633, 0.7035, 0.7671, 0.8304, 0.8684, 0.8468, 0.8590, 0.8783, 0.8890, 0.8847, 0.8658, 0.9029, 0.9501, 0.9944, 1.0542, 1.0971, 1.1350, 1.1918, 1.2594, 1.2608, 1.2462, 1.2330, 1.2033, 1.1859, 1.1692, 1.1486, 1.1259, 1.0852, 1.0520, 1.0133, 0.9738, 0.9303, 0.8940, 0.8552, 0.8093, 0.7695, 0.7311, 0.6999]

New Loadshape.F11_MixedRes_20250724
~   npts=96  interval=0.25
~   mult=[0.3132, 0.2016, 0.0972, 0.0957, 0.0956, 0.0952, 0.0947, 0.0943, 0.0938, 0.0937, 0.0935, 0.0933, 0.0932, 0.0933, 0.0935, 0.0937, 0.0938, 0.0984, 0.1023, 0.7100, 0.1084, 0.1101, 0.1114, 0.1126, 0.1135, 0.1108, 0.1083, 0.1060, 0.1038, 0.0975, 0.0910, 0.0845, 0.0779, 0.0734, 0.1563, 0.2479, 0.1901, 0.2182, 0.2717, 0.3322, 0.2917, 0.2536, 0.2509, 0.2588, 0.2624, 0.2761, 0.2576, 0.2519, 0.2355, 0.2992, 0.3369, 0.3829, 0.4291, 0.4369, 0.4914, 0.5462, 0.6111, 0.6621, 0.6633, 0.7035, 0.7671, 0.8304, 0.8684, 0.8468, 0.8590, 0.8783, 0.8890, 0.8847, 0.8658, 0.9029, 0.9501, 0.9944, 1.0542, 1.0971, 1.1350, 1.1918, 1.2594, 1.2608, 1.2462, 1.2330, 1.2033, 1.1859, 1.1692, 1.1486, 1.1259, 1.0852, 1.0520, 1.0133, 0.9738, 0.9303, 0.8940, 0.8552, 0.8093, 0.7695, 0.7311, 0.6999]
