// ============================================================================
// F12 LOAD SHAPES - Real Data for 2025-07-22
// Generated from CEB metering data + disaggregation
// ============================================================================

New Loadshape.F12_Residential1_20250722
~   npts=96  interval=0.25
~   mult=[0.4567, 0.4465, 0.4394, 0.4378, 0.4268, 0.4205, 0.4157, 0.4079, 0.4047, 0.4016, 0.3969, 0.3929, 0.3858, 0.3819, 0.3787, 0.3787, 0.3787, 0.3793, 0.3838, 0.3876, 0.3960, 0.4235, 0.4485, 0.4704, 0.5041, 0.5293, 0.5568, 0.5638, 0.5701, 0.5499, 0.4895, 0.4552, 0.4358, 0.3919, 0.4157, 0.4127, 0.3712, 0.3007, 0.2608, 0.1942, 0.2229, 0.2454, 0.2049, 0.1196, 0.1326, 0.1000, 0.1000, 0.1000, 0.1000, 0.1000, 0.1000, 0.1000, 0.1000, 0.1000, 0.1000, 0.1454, 0.2484, 0.2652, 0.2716, 0.2584, 0.2145, 0.1620, 0.1000, 0.1372, 0.1760, 0.2292, 0.3556, 0.3953, 0.4107, 0.4269, 0.4211, 0.4231, 0.4307, 0.4583, 0.4827, 0.5315, 0.5843, 0.6307, 0.6504, 0.6472, 0.6457, 0.6496, 0.6417, 0.6378, 0.6307, 0.6205, 0.6157, 0.6087, 0.5961, 0.5787, 0.5614, 0.5449, 0.5189, 0.5000, 0.4803, 0.4598]

New Loadshape.F12_Residential2_20250722
~   npts=96  interval=0.25
~   mult=[0.4567, 0.4465, 0.4394, 0.4378, 0.4268, 0.4205, 0.4157, 0.4079, 0.4047, 0.4016, 0.3969, 0.3929, 0.3858, 0.3819, 0.3787, 0.3787, 0.3787, 0.3793, 0.3838, 0.3876, 0.3960, 0.4235, 0.4485, 0.4704, 0.5041, 0.5293, 0.5568, 0.5638, 0.5701, 0.5499, 0.4895, 0.4552, 0.4358, 0.3919, 0.4157, 0.4127, 0.3712, 0.3007, 0.2608, 0.1942, 0.2229, 0.2454, 0.2049, 0.1196, 0.1326, 0.1000, 0.1000, 0.1000, 0.1000, 0.1000, 0.1000, 0.1000, 0.1000, 0.1000, 0.1000, 0.1454, 0.2484, 0.2652, 0.2716, 0.2584, 0.2145, 0.1620, 0.1000, 0.1372, 0.1760, 0.2292, 0.3556, 0.3953, 0.4107, 0.4269, 0.4211, 0.4231, 0.4307, 0.4583, 0.4827, 0.5315, 0.5843, 0.6307, 0.6504, 0.6472, 0.6457, 0.6496, 0.6417, 0.6378, 0.6307, 0.6205, 0.6157, 0.6087, 0.5961, 0.5787, 0.5614, 0.5449, 0.5189, 0.5000, 0.4803, 0.4598]
