// ============================================================================
// F12 LOAD SHAPES - Real Data for 2025-06-18
// Generated from CEB metering data + disaggregation
// ============================================================================

New Loadshape.F12_Residential1_20250618
~   npts=96  interval=0.25
~   mult=[0.3748, 0.3614, 0.3134, 0.3504, 0.3441, 0.3386, 0.3346, 0.3307, 0.3291, 0.3268, 0.3236, 0.3205, 0.3181, 0.3165, 0.3142, 0.3118, 0.3118, 0.3116, 0.3168, 0.3236, 0.3312, 0.3522, 0.3802, 0.4082, 0.4308, 0.4587, 0.4835, 0.4902, 0.4796, 0.4482, 0.4341, 0.4011, 0.3737, 0.3497, 0.3258, 0.3010, 0.2771, 0.2565, 0.2492, 0.2381, 0.2175, 0.2036, 0.2095, 0.1925, 0.1811, 0.1951, 0.1626, 0.1577, 0.1347, 0.1444, 0.1620, 0.1080, 0.1279, 0.2147, 0.2299, 0.1891, 0.1000, 0.1000, 0.1000, 0.1000, 0.1000, 0.1000, 0.1225, 0.1582, 0.1552, 0.1362, 0.1416, 0.1918, 0.3019, 0.3009, 0.3612, 0.3822, 0.3898, 0.4024, 0.4228, 0.4559, 0.5071, 0.5488, 0.5622, 0.5638, 0.5606, 0.5591, 0.5528, 0.5496, 0.5433, 0.5409, 0.5315, 0.5244, 0.5102, 0.4961, 0.4803, 0.4622, 0.4433, 0.4252, 0.4118, 0.4031]

New Loadshape.F12_Residential2_20250618
~   npts=96  interval=0.25
~   mult=[0.3748, 0.3614, 0.3134, 0.3504, 0.3441, 0.3386, 0.3346, 0.3307, 0.3291, 0.3268, 0.3236, 0.3205, 0.3181, 0.3165, 0.3142, 0.3118, 0.3118, 0.3116, 0.3168, 0.3236, 0.3312, 0.3522, 0.3802, 0.4082, 0.4308, 0.4587, 0.4835, 0.4902, 0.4796, 0.4482, 0.4341, 0.4011, 0.3737, 0.3497, 0.3258, 0.3010, 0.2771, 0.2565, 0.2492, 0.2381, 0.2175, 0.2036, 0.2095, 0.1925, 0.1811, 0.1951, 0.1626, 0.1577, 0.1347, 0.1444, 0.1620, 0.1080, 0.1279, 0.2147, 0.2299, 0.1891, 0.1000, 0.1000, 0.1000, 0.1000, 0.1000, 0.1000, 0.1225, 0.1582, 0.1552, 0.1362, 0.1416, 0.1918, 0.3019, 0.3009, 0.3612, 0.3822, 0.3898, 0.4024, 0.4228, 0.4559, 0.5071, 0.5488, 0.5622, 0.5638, 0.5606, 0.5591, 0.5528, 0.5496, 0.5433, 0.5409, 0.5315, 0.5244, 0.5102, 0.4961, 0.4803, 0.4622, 0.4433, 0.4252, 0.4118, 0.4031]
