// ============================================================================
// F12 LOAD SHAPES - Real Data for 2025-05-03
// Generated from CEB metering data + disaggregation
// ============================================================================

New Loadshape.F12_Residential1_20250503
~   npts=96  interval=0.25
~   mult=[0.4126, 0.4016, 0.3906, 0.3843, 0.3787, 0.3756, 0.3693, 0.3669, 0.3638, 0.3606, 0.3575, 0.3535, 0.3512, 0.3496, 0.3488, 0.3488, 0.3472, 0.3500, 0.3512, 0.3547, 0.3583, 0.3751, 0.3926, 0.4102, 0.4262, 0.4415, 0.4600, 0.4659, 0.4710, 0.4709, 0.4739, 0.4848, 0.4697, 0.4033, 0.3370, 0.3115, 0.3199, 0.3464, 0.2981, 0.3057, 0.3291, 0.3041, 0.2697, 0.2376, 0.1968, 0.1765, 0.1940, 0.2052, 0.1620, 0.1598, 0.1348, 0.1193, 0.1045, 0.1000, 0.1000, 0.1000, 0.1000, 0.1000, 0.1000, 0.1000, 0.1000, 0.1000, 0.1173, 0.1595, 0.1899, 0.2541, 0.3151, 0.3508, 0.3583, 0.2931, 0.3209, 0.3463, 0.3701, 0.3937, 0.4220, 0.4717, 0.5339, 0.5583, 0.5630, 0.5630, 0.5630, 0.5654, 0.5654, 0.5614, 0.5559, 0.5535, 0.5504, 0.5441, 0.5315, 0.5181, 0.5031, 0.4906, 0.4780, 0.4630, 0.4488, 0.4362]

New Loadshape.F12_Residential2_20250503
~   npts=96  interval=0.25
~   mult=[0.4126, 0.4016, 0.3906, 0.3843, 0.3787, 0.3756, 0.3693, 0.3669, 0.3638, 0.3606, 0.3575, 0.3535, 0.3512, 0.3496, 0.3488, 0.3488, 0.3472, 0.3500, 0.3512, 0.3547, 0.3583, 0.3751, 0.3926, 0.4102, 0.4262, 0.4415, 0.4600, 0.4659, 0.4710, 0.4709, 0.4739, 0.4848, 0.4697, 0.4033, 0.3370, 0.3115, 0.3199, 0.3464, 0.2981, 0.3057, 0.3291, 0.3041, 0.2697, 0.2376, 0.1968, 0.1765, 0.1940, 0.2052, 0.1620, 0.1598, 0.1348, 0.1193, 0.1045, 0.1000, 0.1000, 0.1000, 0.1000, 0.1000, 0.1000, 0.1000, 0.1000, 0.1000, 0.1173, 0.1595, 0.1899, 0.2541, 0.3151, 0.3508, 0.3583, 0.2931, 0.3209, 0.3463, 0.3701, 0.3937, 0.4220, 0.4717, 0.5339, 0.5583, 0.5630, 0.5630, 0.5630, 0.5654, 0.5654, 0.5614, 0.5559, 0.5535, 0.5504, 0.5441, 0.5315, 0.5181, 0.5031, 0.4906, 0.4780, 0.4630, 0.4488, 0.4362]
