// ============================================================================
// F12 LOAD SHAPES - Real Data for 2025-08-03
// Generated from CEB metering data + disaggregation
// ============================================================================

New Loadshape.F12_Residential1_20250803
~   npts=96  interval=0.25
~   mult=[0.4181, 0.4110, 0.3984, 0.3961, 0.3843, 0.3748, 0.3701, 0.3638, 0.3591, 0.3528, 0.3488, 0.3457, 0.3441, 0.3472, 0.3425, 0.3409, 0.3402, 0.3382, 0.3410, 0.3437, 0.3473, 0.3542, 0.3667, 0.3799, 0.3931, 0.4013, 0.4056, 0.4090, 0.4022, 0.3892, 0.3738, 0.3709, 0.3658, 0.3499, 0.3096, 0.2819, 0.2794, 0.3032, 0.2869, 0.3202, 0.3196, 0.2870, 0.3174, 0.3367, 0.3537, 0.3374, 0.2872, 0.2543, 0.2774, 0.3016, 0.3165, 0.2967, 0.2871, 0.2751, 0.2520, 0.2454, 0.2412, 0.2293, 0.2095, 0.1904, 0.1958, 0.2386, 0.2695, 0.2942, 0.3172, 0.3277, 0.3248, 0.3337, 0.3386, 0.3473, 0.3504, 0.3693, 0.3858, 0.4024, 0.4205, 0.4441, 0.4827, 0.5197, 0.5331, 0.5346, 0.5378, 0.5370, 0.5323, 0.5283, 0.5315, 0.5260, 0.5173, 0.5087, 0.5000, 0.4811, 0.4622, 0.4472, 0.4291, 0.4102, 0.3937, 0.3780]

New Loadshape.F12_Residential2_20250803
~   npts=96  interval=0.25
~   mult=[0.4181, 0.4110, 0.3984, 0.3961, 0.3843, 0.3748, 0.3701, 0.3638, 0.3591, 0.3528, 0.3488, 0.3457, 0.3441, 0.3472, 0.3425, 0.3409, 0.3402, 0.3382, 0.3410, 0.3437, 0.3473, 0.3542, 0.3667, 0.3799, 0.3931, 0.4013, 0.4056, 0.4090, 0.4022, 0.3892, 0.3738, 0.3709, 0.3658, 0.3499, 0.3096, 0.2819, 0.2794, 0.3032, 0.2869, 0.3202, 0.3196, 0.2870, 0.3174, 0.3367, 0.3537, 0.3374, 0.2872, 0.2543, 0.2774, 0.3016, 0.3165, 0.2967, 0.2871, 0.2751, 0.2520, 0.2454, 0.2412, 0.2293, 0.2095, 0.1904, 0.1958, 0.2386, 0.2695, 0.2942, 0.3172, 0.3277, 0.3248, 0.3337, 0.3386, 0.3473, 0.3504, 0.3693, 0.3858, 0.4024, 0.4205, 0.4441, 0.4827, 0.5197, 0.5331, 0.5346, 0.5378, 0.5370, 0.5323, 0.5283, 0.5315, 0.5260, 0.5173, 0.5087, 0.5000, 0.4811, 0.4622, 0.4472, 0.4291, 0.4102, 0.3937, 0.3780]
