// ============================================================================
// SOLAR IRRADIANCE SHAPE - Real NASA Data for 2025-06-04
// Location: Jaffna, Sri Lanka (9.7423N, 80.0352E)
// Source: NASA/POWER CERES SYN1deg
// ============================================================================

New Loadshape.Solar_20250604
~   npts=96  interval=0.25
~   mult=[0.0000, 0.0000, 0.0000, 0.0000, 0.0000, 0.0000, 0.0000, 0.0000, 0.0000, 0.0000, 0.0000, 0.0000, 0.0000, 0.0000, 0.0000, 0.0000, 0.0000, 0.0037, 0.0074, 0.0111, 0.0148, 0.0508, 0.0869, 0.1229, 0.1590, 0.2090, 0.2590, 0.3090, 0.3590, 0.4115, 0.4639, 0.5164, 0.5688, 0.6127, 0.6567, 0.7006, 0.7445, 0.7759, 0.8073, 0.8387, 0.8700, 0.8859, 0.9018, 0.9176, 0.9335, 0.9246, 0.9158, 0.9070, 0.8981, 0.8774, 0.8567, 0.8359, 0.8152, 0.7732, 0.7313, 0.6894, 0.6474, 0.5987, 0.5500, 0.5012, 0.4525, 0.3982, 0.3438, 0.2895, 0.2352, 0.1867, 0.1382, 0.0897, 0.0412, 0.0309, 0.0206, 0.0103, 0.0000, 0.0000, 0.0000, 0.0000, 0.0000, 0.0000, 0.0000, 0.0000, 0.0000, 0.0000, 0.0000, 0.0000, 0.0000, 0.0000, 0.0000, 0.0000, 0.0000, 0.0000, 0.0000, 0.0000, 0.0000, 0.0000, 0.0000, 0.0000]
