// ============================================================================
// SOLAR IRRADIANCE SHAPE - Real NASA Data for 2025-07-03
// Location: Jaffna, Sri Lanka (9.7423N, 80.0352E)
// Source: NASA/POWER CERES SYN1deg
// ============================================================================

New Loadshape.Solar_20250703
~   npts=96  interval=0.25
~   mult=[0.0000, 0.0000, 0.0000, 0.0000, 0.0000, 0.0000, 0.0000, 0.0000, 0.0000, 0.0000, 0.0000, 0.0000, 0.0000, 0.0000, 0.0000, 0.0000, 0.0000, 0.0027, 0.0055, 0.0082, 0.0110, 0.0422, 0.0735, 0.1047, 0.1359, 0.1781, 0.2202, 0.2623, 0.3044, 0.3585, 0.4127, 0.4668, 0.5209, 0.5682, 0.6154, 0.6627, 0.7099, 0.7464, 0.7829, 0.8194, 0.8559, 0.8674, 0.8790, 0.8905, 0.9020, 0.8912, 0.8804, 0.8695, 0.8587, 0.8248, 0.7908, 0.7569, 0.7230, 0.6821, 0.6413, 0.6005, 0.5597, 0.5100, 0.4603, 0.4107, 0.3610, 0.3160, 0.2711, 0.2261, 0.1811, 0.1455, 0.1099, 0.0743, 0.0387, 0.0290, 0.0194, 0.0097, 0.0000, 0.0000, 0.0000, 0.0000, 0.0000, 0.0000, 0.0000, 0.0000, 0.0000, 0.0000, 0.0000, 0.0000, 0.0000, 0.0000, 0.0000, 0.0000, 0.0000, 0.0000, 0.0000, 0.0000, 0.0000, 0.0000, 0.0000, 0.0000]
