// ============================================================================
// SOLAR IRRADIANCE SHAPE - Real NASA Data for 2025-07-22
// Location: Jaffna, Sri Lanka (9.7423N, 80.0352E)
// Source: NASA/POWER CERES SYN1deg
// ============================================================================

New Loadshape.Solar_20250722
~   npts=96  interval=0.25
~   mult=[0.0000, 0.0000, 0.0000, 0.0000, 0.0000, 0.0000, 0.0000, 0.0000, 0.0000, 0.0000, 0.0000, 0.0000, 0.0000, 0.0000, 0.0000, 0.0000, 0.0000, 0.0017, 0.0035, 0.0052, 0.0070, 0.0348, 0.0626, 0.0904, 0.1182, 0.1628, 0.2074, 0.2519, 0.2965, 0.3420, 0.3876, 0.4331, 0.4787, 0.5193, 0.5599, 0.6004, 0.6410, 0.6702, 0.6995, 0.7287, 0.7579, 0.7710, 0.7841, 0.7973, 0.8104, 0.8023, 0.7942, 0.7861, 0.7780, 0.7541, 0.7303, 0.7064, 0.6826, 0.6140, 0.5454, 0.4768, 0.4083, 0.3970, 0.3858, 0.3746, 0.3634, 0.3217, 0.2800, 0.2383, 0.1966, 0.1578, 0.1190, 0.0801, 0.0413, 0.0310, 0.0207, 0.0103, 0.0000, 0.0000, 0.0000, 0.0000, 0.0000, 0.0000, 0.0000, 0.0000, 0.0000, 0.0000, 0.0000, 0.0000, 0.0000, 0.0000, 0.0000, 0.0000, 0.0000, 0.0000, 0.0000, 0.0000, 0.0000, 0.0000, 0.0000, 0.0000]
