// ============================================================================
// SOLAR IRRADIANCE SHAPE - Real NASA Data for 2025-06-05
// Location: Jaffna, Sri Lanka (9.7423N, 80.0352E)
// Source: NASA/POWER CERES SYN1deg
// ============================================================================

New Loadshape.Solar_20250605
~   npts=96  interval=0.25
~   mult=[0.0000, 0.0000, 0.0000, 0.0000, 0.0000, 0.0000, 0.0000, 0.0000, 0.0000, 0.0000, 0.0000, 0.0000, 0.0000, 0.0000, 0.0000, 0.0000, 0.0000, 0.0045, 0.0090, 0.0135, 0.0180, 0.0559, 0.0939, 0.1319, 0.1699, 0.2117, 0.2535, 0.2953, 0.3371, 0.3928, 0.4485, 0.5042, 0.5599, 0.6077, 0.6555, 0.7033, 0.7510, 0.7834, 0.8157, 0.8480, 0.8804, 0.8770, 0.8737, 0.8703, 0.8670, 0.8624, 0.8578, 0.8533, 0.8487, 0.8216, 0.7945, 0.7674, 0.7403, 0.7072, 0.6741, 0.6410, 0.6080, 0.5602, 0.5124, 0.4646, 0.4168, 0.3635, 0.3102, 0.2569, 0.2036, 0.1617, 0.1199, 0.0780, 0.0362, 0.0271, 0.0181, 0.0090, 0.0000, 0.0000, 0.0000, 0.0000, 0.0000, 0.0000, 0.0000, 0.0000, 0.0000, 0.0000, 0.0000, 0.0000, 0.0000, 0.0000, 0.0000, 0.0000, 0.0000, 0.0000, 0.0000, 0.0000, 0.0000, 0.0000, 0.0000, 0.0000]
