// ============================================================================
// SOLAR IRRADIANCE SHAPE - Real NASA Data for 2025-05-24
// Location: Jaffna, Sri Lanka (9.7423N, 80.0352E)
// Source: NASA/POWER CERES SYN1deg
// ============================================================================

New Loadshape.Solar_20250524
~   npts=96  interval=0.25
~   mult=[0.0000, 0.0000, 0.0000, 0.0000, 0.0000, 0.0000, 0.0000, 0.0000, 0.0000, 0.0000, 0.0000, 0.0000, 0.0000, 0.0000, 0.0000, 0.0000, 0.0000, 0.0034, 0.0068, 0.0101, 0.0135, 0.0461, 0.0787, 0.1113, 0.1438, 0.1867, 0.2295, 0.2723, 0.3151, 0.3591, 0.4031, 0.4471, 0.4912, 0.5275, 0.5638, 0.6001, 0.6364, 0.6697, 0.7030, 0.7364, 0.7697, 0.7726, 0.7755, 0.7784, 0.7813, 0.7752, 0.7690, 0.7628, 0.7567, 0.7327, 0.7088, 0.6849, 0.6610, 0.6176, 0.5742, 0.5308, 0.4874, 0.4275, 0.3675, 0.3075, 0.2476, 0.2141, 0.1806, 0.1471, 0.1136, 0.0894, 0.0651, 0.0409, 0.0166, 0.0125, 0.0083, 0.0042, 0.0000, 0.0000, 0.0000, 0.0000, 0.0000, 0.0000, 0.0000, 0.0000, 0.0000, 0.0000, 0.0000, 0.0000, 0.0000, 0.0000, 0.0000, 0.0000, 0.0000, 0.0000, 0.0000, 0.0000, 0.0000, 0.0000, 0.0000, 0.0000]
