// ============================================================================
// SOLAR IRRADIANCE SHAPE - Real NASA Data for 2025-07-25
// Location: Jaffna, Sri Lanka (9.7423N, 80.0352E)
// Source: NASA/POWER CERES SYN1deg
// ============================================================================

New Loadshape.Solar_20250725
~   npts=96  interval=0.25
~   mult=[0.0000, 0.0000, 0.0000, 0.0000, 0.0000, 0.0000, 0.0000, 0.0000, 0.0000, 0.0000, 0.0000, 0.0000, 0.0000, 0.0000, 0.0000, 0.0000, 0.0000, 0.0014, 0.0028, 0.0042, 0.0056, 0.0212, 0.0369, 0.0526, 0.0682, 0.0994, 0.1306, 0.1618, 0.1930, 0.2267, 0.2604, 0.2942, 0.3279, 0.3601, 0.3923, 0.4244, 0.4566, 0.4769, 0.4972, 0.5175, 0.5378, 0.5373, 0.5369, 0.5364, 0.5360, 0.5692, 0.6025, 0.6357, 0.6690, 0.6239, 0.5789, 0.5338, 0.4888, 0.4731, 0.4574, 0.4418, 0.4261, 0.3886, 0.3512, 0.3137, 0.2762, 0.2416, 0.2070, 0.1724, 0.1378, 0.1106, 0.0834, 0.0562, 0.0291, 0.0218, 0.0145, 0.0073, 0.0000, 0.0000, 0.0000, 0.0000, 0.0000, 0.0000, 0.0000, 0.0000, 0.0000, 0.0000, 0.0000, 0.0000, 0.0000, 0.0000, 0.0000, 0.0000, 0.0000, 0.0000, 0.0000, 0.0000, 0.0000, 0.0000, 0.0000, 0.0000]
