// ============================================================================
// SOLAR IRRADIANCE SHAPE - Real NASA Data for 2025-08-15
// Location: Jaffna, Sri Lanka (9.7423N, 80.0352E)
// Source: NASA/POWER CERES SYN1deg
// ============================================================================

New Loadshape.Solar_20250815
~   npts=96  interval=0.25
~   mult=[0.0000, 0.0000, 0.0000, 0.0000, 0.0000, 0.0000, 0.0000, 0.0000, 0.0000, 0.0000, 0.0000, 0.0000, 0.0000, 0.0000, 0.0000, 0.0000, 0.0000, 0.0018, 0.0037, 0.0055, 0.0074, 0.0366, 0.0658, 0.0949, 0.1241, 0.1711, 0.2180, 0.2650, 0.3119, 0.3665, 0.4210, 0.4756, 0.5301, 0.5762, 0.6224, 0.6686, 0.7147, 0.7541, 0.7936, 0.8330, 0.8724, 0.8750, 0.8777, 0.8803, 0.8829, 0.8566, 0.8303, 0.8040, 0.7777, 0.7677, 0.7578, 0.7478, 0.7378, 0.6954, 0.6529, 0.6104, 0.5679, 0.5120, 0.4561, 0.4002, 0.3442, 0.2996, 0.2549, 0.2102, 0.1655, 0.1312, 0.0968, 0.0624, 0.0281, 0.0211, 0.0140, 0.0070, 0.0000, 0.0000, 0.0000, 0.0000, 0.0000, 0.0000, 0.0000, 0.0000, 0.0000, 0.0000, 0.0000, 0.0000, 0.0000, 0.0000, 0.0000, 0.0000, 0.0000, 0.0000, 0.0000, 0.0000, 0.0000, 0.0000, 0.0000, 0.0000]
