// ============================================================================
// SOLAR IRRADIANCE SHAPE - Real NASA Data for 2025-07-19
// Location: Jaffna, Sri Lanka (9.7423N, 80.0352E)
// Source: NASA/POWER CERES SYN1deg
// ============================================================================

New Loadshape.Solar_20250719
~   npts=96  interval=0.25
~   mult=[0.0000, 0.0000, 0.0000, 0.0000, 0.0000, 0.0000, 0.0000, 0.0000, 0.0000, 0.0000, 0.0000, 0.0000, 0.0000, 0.0000, 0.0000, 0.0000, 0.0000, 0.0017, 0.0035, 0.0052, 0.0070, 0.0268, 0.0467, 0.0665, 0.0864, 0.1231, 0.1599, 0.1966, 0.2333, 0.2716, 0.3099, 0.3482, 0.3866, 0.4151, 0.4437, 0.4723, 0.5009, 0.5346, 0.5683, 0.6020, 0.6356, 0.6505, 0.6654, 0.6803, 0.6952, 0.6746, 0.6540, 0.6335, 0.6129, 0.5844, 0.5559, 0.5274, 0.4989, 0.4749, 0.4509, 0.4269, 0.4029, 0.3708, 0.3386, 0.3065, 0.2743, 0.2389, 0.2034, 0.1680, 0.1326, 0.1069, 0.0812, 0.0555, 0.0298, 0.0223, 0.0149, 0.0074, 0.0000, 0.0000, 0.0000, 0.0000, 0.0000, 0.0000, 0.0000, 0.0000, 0.0000, 0.0000, 0.0000, 0.0000, 0.0000, 0.0000, 0.0000, 0.0000, 0.0000, 0.0000, 0.0000, 0.0000, 0.0000, 0.0000, 0.0000, 0.0000]
