// ============================================================================
// SOLAR IRRADIANCE SHAPE - Real NASA Data for 2025-07-29
// Location: Jaffna, Sri Lanka (9.7423N, 80.0352E)
// Source: NASA/POWER CERES SYN1deg
// ============================================================================

New Loadshape.Solar_20250729
~   npts=96  interval=0.25
~   mult=[0.0000, 0.0000, 0.0000, 0.0000, 0.0000, 0.0000, 0.0000, 0.0000, 0.0000, 0.0000, 0.0000, 0.0000, 0.0000, 0.0000, 0.0000, 0.0000, 0.0000, 0.0019, 0.0037, 0.0056, 0.0074, 0.0354, 0.0634, 0.0914, 0.1194, 0.1686, 0.2178, 0.2670, 0.3162, 0.3638, 0.4114, 0.4590, 0.5066, 0.5523, 0.5979, 0.6435, 0.6891, 0.7237, 0.7582, 0.7927, 0.8273, 0.8445, 0.8618, 0.8790, 0.8963, 0.8959, 0.8956, 0.8952, 0.8948, 0.8732, 0.8516, 0.8299, 0.8082, 0.7652, 0.7222, 0.6791, 0.6361, 0.5907, 0.5453, 0.4999, 0.4545, 0.4014, 0.3482, 0.2951, 0.2419, 0.1928, 0.1437, 0.0946, 0.0454, 0.0341, 0.0227, 0.0114, 0.0000, 0.0000, 0.0000, 0.0000, 0.0000, 0.0000, 0.0000, 0.0000, 0.0000, 0.0000, 0.0000, 0.0000, 0.0000, 0.0000, 0.0000, 0.0000, 0.0000, 0.0000, 0.0000, 0.0000, 0.0000, 0.0000, 0.0000, 0.0000]
