// ============================================================================
// SOLAR IRRADIANCE SHAPE - Real NASA Data for 2025-08-25
// Location: Jaffna, Sri Lanka (9.7423N, 80.0352E)
// Source: NASA/POWER CERES SYN1deg
// ============================================================================

New Loadshape.Solar_20250825
~   npts=96  interval=0.25
~   mult=[0.0000, 0.0000, 0.0000, 0.0000, 0.0000, 0.0000, 0.0000, 0.0000, 0.0000, 0.0000, 0.0000, 0.0000, 0.0000, 0.0000, 0.0000, 0.0000, 0.0000, 0.0019, 0.0038, 0.0056, 0.0075, 0.0387, 0.0699, 0.1011, 0.1323, 0.1811, 0.2299, 0.2786, 0.3274, 0.3857, 0.4439, 0.5022, 0.5604, 0.6054, 0.6503, 0.6952, 0.7402, 0.7820, 0.8240, 0.8658, 0.9078, 0.9177, 0.9277, 0.9376, 0.9476, 0.9384, 0.9292, 0.9200, 0.9108, 0.8826, 0.8544, 0.8261, 0.7979, 0.7605, 0.7230, 0.6856, 0.6482, 0.5954, 0.5427, 0.4900, 0.4373, 0.3806, 0.3238, 0.2670, 0.2103, 0.1651, 0.1199, 0.0747, 0.0295, 0.0221, 0.0148, 0.0074, 0.0000, 0.0000, 0.0000, 0.0000, 0.0000, 0.0000, 0.0000, 0.0000, 0.0000, 0.0000, 0.0000, 0.0000, 0.0000, 0.0000, 0.0000, 0.0000, 0.0000, 0.0000, 0.0000, 0.0000, 0.0000, 0.0000, 0.0000, 0.0000]
