// ============================================================================
// SOLAR IRRADIANCE SHAPE - Real NASA Data for 2025-05-30
// Location: Jaffna, Sri Lanka (9.7423N, 80.0352E)
// Source: NASA/POWER CERES SYN1deg
// ============================================================================

New Loadshape.Solar_20250530
~   npts=96  interval=0.25
~   mult=[0.0000, 0.0000, 0.0000, 0.0000, 0.0000, 0.0000, 0.0000, 0.0000, 0.0000, 0.0000, 0.0000, 0.0000, 0.0000, 0.0000, 0.0000, 0.0000, 0.0000, 0.0039, 0.0078, 0.0117, 0.0156, 0.0499, 0.0842, 0.1186, 0.1528, 0.1988, 0.2448, 0.2908, 0.3368, 0.3836, 0.4305, 0.4773, 0.5241, 0.5638, 0.6035, 0.6431, 0.6828, 0.7130, 0.7432, 0.7734, 0.8036, 0.8082, 0.8129, 0.8175, 0.8222, 0.8082, 0.7943, 0.7804, 0.7665, 0.7414, 0.7164, 0.6914, 0.6664, 0.6328, 0.5993, 0.5657, 0.5322, 0.4872, 0.4421, 0.3971, 0.3521, 0.3071, 0.2620, 0.2169, 0.1718, 0.1365, 0.1012, 0.0659, 0.0306, 0.0230, 0.0153, 0.0077, 0.0000, 0.0000, 0.0000, 0.0000, 0.0000, 0.0000, 0.0000, 0.0000, 0.0000, 0.0000, 0.0000, 0.0000, 0.0000, 0.0000, 0.0000, 0.0000, 0.0000, 0.0000, 0.0000, 0.0000, 0.0000, 0.0000, 0.0000, 0.0000]
