// ============================================================================
// SOLAR IRRADIANCE SHAPE - Real NASA Data for 2025-06-26
// Location: Jaffna, Sri Lanka (9.7423N, 80.0352E)
// Source: NASA/POWER CERES SYN1deg
// ============================================================================

New Loadshape.Solar_20250626
~   npts=96  interval=0.25
~   mult=[0.0000, 0.0000, 0.0000, 0.0000, 0.0000, 0.0000, 0.0000, 0.0000, 0.0000, 0.0000, 0.0000, 0.0000, 0.0000, 0.0000, 0.0000, 0.0000, 0.0000, 0.0025, 0.0051, 0.0076, 0.0102, 0.0346, 0.0589, 0.0833, 0.1077, 0.1407, 0.1737, 0.2066, 0.2396, 0.2735, 0.3073, 0.3412, 0.3750, 0.4085, 0.4419, 0.4753, 0.5088, 0.5312, 0.5535, 0.5759, 0.5983, 0.6076, 0.6168, 0.6261, 0.6354, 0.6469, 0.6584, 0.6699, 0.6814, 0.6497, 0.6178, 0.5860, 0.5542, 0.5680, 0.5818, 0.5955, 0.6093, 0.5548, 0.5004, 0.4460, 0.3916, 0.3433, 0.2951, 0.2469, 0.1987, 0.1590, 0.1192, 0.0795, 0.0398, 0.0298, 0.0199, 0.0099, 0.0000, 0.0000, 0.0000, 0.0000, 0.0000, 0.0000, 0.0000, 0.0000, 0.0000, 0.0000, 0.0000, 0.0000, 0.0000, 0.0000, 0.0000, 0.0000, 0.0000, 0.0000, 0.0000, 0.0000, 0.0000, 0.0000, 0.0000, 0.0000]
