// ============================================================================
// SOLAR IRRADIANCE SHAPE - Real NASA Data for 2025-07-02
// Location: Jaffna, Sri Lanka (9.7423N, 80.0352E)
// Source: NASA/POWER CERES SYN1deg
// ============================================================================

New Loadshape.Solar_20250702
~   npts=96  interval=0.25
~   mult=[0.0000, 0.0000, 0.0000, 0.0000, 0.0000, 0.0000, 0.0000, 0.0000, 0.0000, 0.0000, 0.0000, 0.0000, 0.0000, 0.0000, 0.0000, 0.0000, 0.0000, 0.0028, 0.0056, 0.0085, 0.0113, 0.0419, 0.0726, 0.1033, 0.1340, 0.1755, 0.2171, 0.2587, 0.3002, 0.3447, 0.3892, 0.4337, 0.4782, 0.5155, 0.5527, 0.5900, 0.6272, 0.6621, 0.6970, 0.7318, 0.7667, 0.7768, 0.7870, 0.7971, 0.8072, 0.8208, 0.8345, 0.8481, 0.8618, 0.8346, 0.8074, 0.7803, 0.7531, 0.6976, 0.6421, 0.5867, 0.5312, 0.5027, 0.4742, 0.4457, 0.4172, 0.3676, 0.3180, 0.2684, 0.2188, 0.1757, 0.1326, 0.0895, 0.0464, 0.0348, 0.0232, 0.0116, 0.0000, 0.0000, 0.0000, 0.0000, 0.0000, 0.0000, 0.0000, 0.0000, 0.0000, 0.0000, 0.0000, 0.0000, 0.0000, 0.0000, 0.0000, 0.0000, 0.0000, 0.0000, 0.0000, 0.0000, 0.0000, 0.0000, 0.0000, 0.0000]
