// ============================================================================
// SOLAR IRRADIANCE SHAPE - Real NASA Data for 2025-05-25
// Location: Jaffna, Sri Lanka (9.7423N, 80.0352E)
// Source: NASA/POWER CERES SYN1deg
// ============================================================================

New Loadshape.Solar_20250525
~   npts=96  interval=0.25
~   mult=[0.0000, 0.0000, 0.0000, 0.0000, 0.0000, 0.0000, 0.0000, 0.0000, 0.0000, 0.0000, 0.0000, 0.0000, 0.0000, 0.0000, 0.0000, 0.0000, 0.0000, 0.0019, 0.0039, 0.0058, 0.0078, 0.0183, 0.0288, 0.0394, 0.0499, 0.0758, 0.1017, 0.1276, 0.1534, 0.1842, 0.2149, 0.2456, 0.2763, 0.3126, 0.3488, 0.3850, 0.4213, 0.4065, 0.3917, 0.3768, 0.3620, 0.3665, 0.3710, 0.3756, 0.3801, 0.3640, 0.3478, 0.3317, 0.3156, 0.3145, 0.3135, 0.3124, 0.3113, 0.3001, 0.2890, 0.2778, 0.2666, 0.2439, 0.2212, 0.1986, 0.1759, 0.1542, 0.1325, 0.1108, 0.0891, 0.0706, 0.0522, 0.0337, 0.0152, 0.0114, 0.0076, 0.0038, 0.0000, 0.0000, 0.0000, 0.0000, 0.0000, 0.0000, 0.0000, 0.0000, 0.0000, 0.0000, 0.0000, 0.0000, 0.0000, 0.0000, 0.0000, 0.0000, 0.0000, 0.0000, 0.0000, 0.0000, 0.0000, 0.0000, 0.0000, 0.0000]
