// ============================================================================
// SOLAR IRRADIANCE SHAPE - Real NASA Data for 2025-06-14
// Location: Jaffna, Sri Lanka (9.7423N, 80.0352E)
// Source: NASA/POWER CERES SYN1deg
// ============================================================================

New Loadshape.Solar_20250614
~   npts=96  interval=0.25
~   mult=[0.0000, 0.0000, 0.0000, 0.0000, 0.0000, 0.0000, 0.0000, 0.0000, 0.0000, 0.0000, 0.0000, 0.0000, 0.0000, 0.0000, 0.0000, 0.0000, 0.0000, 0.0042, 0.0084, 0.0126, 0.0168, 0.0512, 0.0857, 0.1201, 0.1546, 0.2005, 0.2464, 0.2922, 0.3381, 0.3811, 0.4240, 0.4670, 0.5100, 0.5504, 0.5909, 0.6313, 0.6718, 0.7012, 0.7305, 0.7599, 0.7893, 0.8057, 0.8222, 0.8387, 0.8551, 0.8492, 0.8433, 0.8374, 0.8314, 0.8054, 0.7794, 0.7533, 0.7272, 0.6999, 0.6726, 0.6452, 0.6179, 0.5678, 0.5178, 0.4677, 0.4176, 0.3660, 0.3144, 0.2628, 0.2112, 0.1683, 0.1254, 0.0825, 0.0396, 0.0297, 0.0198, 0.0099, 0.0000, 0.0000, 0.0000, 0.0000, 0.0000, 0.0000, 0.0000, 0.0000, 0.0000, 0.0000, 0.0000, 0.0000, 0.0000, 0.0000, 0.0000, 0.0000, 0.0000, 0.0000, 0.0000, 0.0000, 0.0000, 0.0000, 0.0000, 0.0000]
