// ============================================================================
// SOLAR IRRADIANCE SHAPE - Real NASA Data for 2025-05-15
// Location: Jaffna, Sri Lanka (9.7423N, 80.0352E)
// Source: NASA/POWER CERES SYN1deg
// ============================================================================

New Loadshape.Solar_20250515
~   npts=96  interval=0.25
~   mult=[0.0000, 0.0000, 0.0000, 0.0000, 0.0000, 0.0000, 0.0000, 0.0000, 0.0000, 0.0000, 0.0000, 0.0000, 0.0000, 0.0000, 0.0000, 0.0000, 0.0000, 0.0037, 0.0074, 0.0111, 0.0148, 0.0470, 0.0793, 0.1116, 0.1440, 0.1902, 0.2364, 0.2826, 0.3288, 0.3731, 0.4174, 0.4616, 0.5059, 0.5537, 0.6015, 0.6493, 0.6971, 0.7232, 0.7494, 0.7755, 0.8017, 0.7938, 0.7860, 0.7781, 0.7702, 0.7341, 0.6981, 0.6620, 0.6259, 0.5962, 0.5665, 0.5368, 0.5072, 0.4850, 0.4629, 0.4408, 0.4187, 0.3900, 0.3612, 0.3324, 0.3036, 0.2669, 0.2302, 0.1935, 0.1567, 0.1240, 0.0914, 0.0587, 0.0260, 0.0195, 0.0130, 0.0065, 0.0000, 0.0000, 0.0000, 0.0000, 0.0000, 0.0000, 0.0000, 0.0000, 0.0000, 0.0000, 0.0000, 0.0000, 0.0000, 0.0000, 0.0000, 0.0000, 0.0000, 0.0000, 0.0000, 0.0000, 0.0000, 0.0000, 0.0000, 0.0000]
