// ============================================================================
// SOLAR IRRADIANCE SHAPE - Real NASA Data for 2025-07-14
// Location: Jaffna, Sri Lanka (9.7423N, 80.0352E)
// Source: NASA/POWER CERES SYN1deg
// ============================================================================

New Loadshape.Solar_20250714
~   npts=96  interval=0.25
~   mult=[0.0000, 0.0000, 0.0000, 0.0000, 0.0000, 0.0000, 0.0000, 0.0000, 0.0000, 0.0000, 0.0000, 0.0000, 0.0000, 0.0000, 0.0000, 0.0000, 0.0000, 0.0018, 0.0037, 0.0055, 0.0074, 0.0321, 0.0569, 0.0817, 0.1064, 0.1449, 0.1834, 0.2219, 0.2604, 0.3222, 0.3839, 0.4456, 0.5074, 0.5521, 0.5969, 0.6416, 0.6864, 0.7217, 0.7569, 0.7922, 0.8274, 0.8499, 0.8725, 0.8950, 0.9175, 0.9100, 0.9026, 0.8951, 0.8876, 0.8655, 0.8434, 0.8212, 0.7991, 0.7578, 0.7164, 0.6751, 0.6337, 0.5902, 0.5467, 0.5032, 0.4597, 0.4056, 0.3516, 0.2976, 0.2435, 0.1959, 0.1483, 0.1006, 0.0530, 0.0398, 0.0265, 0.0132, 0.0000, 0.0000, 0.0000, 0.0000, 0.0000, 0.0000, 0.0000, 0.0000, 0.0000, 0.0000, 0.0000, 0.0000, 0.0000, 0.0000, 0.0000, 0.0000, 0.0000, 0.0000, 0.0000, 0.0000, 0.0000, 0.0000, 0.0000, 0.0000]
