// ============================================================================
// SOLAR IRRADIANCE SHAPE - Real NASA Data for 2025-07-21
// Location: Jaffna, Sri Lanka (9.7423N, 80.0352E)
// Source: NASA/POWER CERES SYN1deg
// ============================================================================

New Loadshape.Solar_20250721
~   npts=96  interval=0.25
~   mult=[0.0000, 0.0000, 0.0000, 0.0000, 0.0000, 0.0000, 0.0000, 0.0000, 0.0000, 0.0000, 0.0000, 0.0000, 0.0000, 0.0000, 0.0000, 0.0000, 0.0000, 0.0018, 0.0035, 0.0052, 0.0070, 0.0272, 0.0474, 0.0677, 0.0879, 0.1228, 0.1578, 0.1927, 0.2276, 0.2687, 0.3098, 0.3509, 0.3919, 0.4346, 0.4773, 0.5199, 0.5626, 0.5865, 0.6105, 0.6344, 0.6583, 0.6443, 0.6302, 0.6162, 0.6022, 0.6149, 0.6276, 0.6403, 0.6530, 0.6470, 0.6410, 0.6349, 0.6289, 0.5998, 0.5708, 0.5417, 0.5126, 0.4655, 0.4184, 0.3713, 0.3242, 0.2828, 0.2414, 0.1999, 0.1585, 0.1275, 0.0965, 0.0655, 0.0346, 0.0259, 0.0173, 0.0086, 0.0000, 0.0000, 0.0000, 0.0000, 0.0000, 0.0000, 0.0000, 0.0000, 0.0000, 0.0000, 0.0000, 0.0000, 0.0000, 0.0000, 0.0000, 0.0000, 0.0000, 0.0000, 0.0000, 0.0000, 0.0000, 0.0000, 0.0000, 0.0000]
