// ============================================================================
// SOLAR IRRADIANCE SHAPE - Real NASA Data for 2025-07-16
// Location: Jaffna, Sri Lanka (9.7423N, 80.0352E)
// Source: NASA/POWER CERES SYN1deg
// ============================================================================

New Loadshape.Solar_20250716
~   npts=96  interval=0.25
~   mult=[0.0000, 0.0000, 0.0000, 0.0000, 0.0000, 0.0000, 0.0000, 0.0000, 0.0000, 0.0000, 0.0000, 0.0000, 0.0000, 0.0000, 0.0000, 0.0000, 0.0000, 0.0022, 0.0044, 0.0066, 0.0088, 0.0354, 0.0620, 0.0886, 0.1152, 0.1591, 0.2029, 0.2467, 0.2906, 0.3386, 0.3865, 0.4345, 0.4825, 0.5222, 0.5620, 0.6018, 0.6415, 0.6696, 0.6977, 0.7257, 0.7538, 0.7356, 0.7173, 0.6990, 0.6808, 0.6768, 0.6729, 0.6689, 0.6650, 0.6463, 0.6277, 0.6090, 0.5904, 0.5588, 0.5273, 0.4957, 0.4642, 0.4363, 0.4084, 0.3805, 0.3526, 0.3103, 0.2681, 0.2258, 0.1835, 0.1488, 0.1140, 0.0793, 0.0445, 0.0334, 0.0222, 0.0111, 0.0000, 0.0000, 0.0000, 0.0000, 0.0000, 0.0000, 0.0000, 0.0000, 0.0000, 0.0000, 0.0000, 0.0000, 0.0000, 0.0000, 0.0000, 0.0000, 0.0000, 0.0000, 0.0000, 0.0000, 0.0000, 0.0000, 0.0000, 0.0000]
