// ============================================================================
// SOLAR IRRADIANCE SHAPE - Real NASA Data for 2025-08-20
// Location: Jaffna, Sri Lanka (9.7423N, 80.0352E)
// Source: NASA/POWER CERES SYN1deg
// ============================================================================

New Loadshape.Solar_20250820
~   npts=96  interval=0.25
~   mult=[0.0000, 0.0000, 0.0000, 0.0000, 0.0000, 0.0000, 0.0000, 0.0000, 0.0000, 0.0000, 0.0000, 0.0000, 0.0000, 0.0000, 0.0000, 0.0000, 0.0000, 0.0019, 0.0037, 0.0056, 0.0074, 0.0400, 0.0725, 0.1050, 0.1375, 0.1891, 0.2407, 0.2924, 0.3440, 0.3993, 0.4546, 0.5099, 0.5652, 0.6108, 0.6564, 0.7020, 0.7476, 0.7951, 0.8426, 0.8900, 0.9374, 0.9487, 0.9600, 0.9713, 0.9826, 0.9736, 0.9647, 0.9558, 0.9469, 0.9187, 0.8905, 0.8622, 0.8340, 0.7788, 0.7235, 0.6682, 0.6130, 0.5734, 0.5338, 0.4942, 0.4546, 0.3980, 0.3415, 0.2850, 0.2284, 0.1804, 0.1324, 0.0845, 0.0365, 0.0274, 0.0182, 0.0091, 0.0000, 0.0000, 0.0000, 0.0000, 0.0000, 0.0000, 0.0000, 0.0000, 0.0000, 0.0000, 0.0000, 0.0000, 0.0000, 0.0000, 0.0000, 0.0000, 0.0000, 0.0000, 0.0000, 0.0000, 0.0000, 0.0000, 0.0000, 0.0000]
