// ============================================================================
// SOLAR IRRADIANCE SHAPE - Real NASA Data for 2025-07-01
// Location: Jaffna, Sri Lanka (9.7423N, 80.0352E)
// Source: NASA/POWER CERES SYN1deg
// ============================================================================

New Loadshape.Solar_20250701
~   npts=96  interval=0.25
~   mult=[0.0000, 0.0000, 0.0000, 0.0000, 0.0000, 0.0000, 0.0000, 0.0000, 0.0000, 0.0000, 0.0000, 0.0000, 0.0000, 0.0000, 0.0000, 0.0000, 0.0000, 0.0021, 0.0043, 0.0064, 0.0086, 0.0350, 0.0614, 0.0878, 0.1142, 0.1522, 0.1902, 0.2282, 0.2662, 0.3065, 0.3468, 0.3872, 0.4275, 0.4664, 0.5052, 0.5441, 0.5830, 0.6046, 0.6261, 0.6477, 0.6692, 0.6698, 0.6704, 0.6710, 0.6716, 0.6709, 0.6703, 0.6697, 0.6691, 0.6612, 0.6533, 0.6453, 0.6374, 0.6160, 0.5947, 0.5733, 0.5519, 0.5187, 0.4855, 0.4524, 0.4192, 0.3675, 0.3158, 0.2641, 0.2124, 0.1700, 0.1276, 0.0853, 0.0429, 0.0322, 0.0214, 0.0107, 0.0000, 0.0000, 0.0000, 0.0000, 0.0000, 0.0000, 0.0000, 0.0000, 0.0000, 0.0000, 0.0000, 0.0000, 0.0000, 0.0000, 0.0000, 0.0000, 0.0000, 0.0000, 0.0000, 0.0000, 0.0000, 0.0000, 0.0000, 0.0000]
