// ============================================================================
// SOLAR IRRADIANCE SHAPE - Real NASA Data for 2025-06-01
// Location: Jaffna, Sri Lanka (9.7423N, 80.0352E)
// Source: NASA/POWER CERES SYN1deg
// ============================================================================

New Loadshape.Solar_20250601
~   npts=96  interval=0.25
~   mult=[0.0000, 0.0000, 0.0000, 0.0000, 0.0000, 0.0000, 0.0000, 0.0000, 0.0000, 0.0000, 0.0000, 0.0000, 0.0000, 0.0000, 0.0000, 0.0000, 0.0000, 0.0034, 0.0068, 0.0102, 0.0136, 0.0435, 0.0733, 0.1031, 0.1330, 0.1769, 0.2208, 0.2647, 0.3086, 0.3531, 0.3976, 0.4421, 0.4866, 0.5312, 0.5758, 0.6204, 0.6650, 0.6977, 0.7304, 0.7632, 0.7959, 0.8210, 0.8461, 0.8712, 0.8963, 0.8835, 0.8706, 0.8578, 0.8450, 0.8269, 0.8089, 0.7908, 0.7728, 0.7327, 0.6927, 0.6527, 0.6126, 0.5655, 0.5183, 0.4711, 0.4240, 0.3706, 0.3174, 0.2640, 0.2108, 0.1667, 0.1227, 0.0787, 0.0346, 0.0260, 0.0173, 0.0087, 0.0000, 0.0000, 0.0000, 0.0000, 0.0000, 0.0000, 0.0000, 0.0000, 0.0000, 0.0000, 0.0000, 0.0000, 0.0000, 0.0000, 0.0000, 0.0000, 0.0000, 0.0000, 0.0000, 0.0000, 0.0000, 0.0000, 0.0000, 0.0000]
