// ============================================================================
// SOLAR IRRADIANCE SHAPE - Real NASA Data for 2025-08-26
// Location: Jaffna, Sri Lanka (9.7423N, 80.0352E)
// Source: NASA/POWER CERES SYN1deg
// ============================================================================

New Loadshape.Solar_20250826
~   npts=96  interval=0.25
~   mult=[0.0000, 0.0000, 0.0000, 0.0000, 0.0000, 0.0000, 0.0000, 0.0000, 0.0000, 0.0000, 0.0000, 0.0000, 0.0000, 0.0000, 0.0000, 0.0000, 0.0000, 0.0018, 0.0037, 0.0055, 0.0074, 0.0362, 0.0651, 0.0939, 0.1228, 0.1694, 0.2161, 0.2628, 0.3094, 0.3672, 0.4249, 0.4826, 0.5404, 0.5790, 0.6177, 0.6564, 0.6951, 0.7322, 0.7693, 0.8064, 0.8435, 0.8599, 0.8762, 0.8925, 0.9088, 0.8904, 0.8719, 0.8534, 0.8350, 0.8208, 0.8066, 0.7924, 0.7782, 0.7372, 0.6963, 0.6553, 0.6144, 0.5739, 0.5334, 0.4929, 0.4524, 0.3944, 0.3365, 0.2785, 0.2206, 0.1727, 0.1248, 0.0768, 0.0289, 0.0217, 0.0145, 0.0072, 0.0000, 0.0000, 0.0000, 0.0000, 0.0000, 0.0000, 0.0000, 0.0000, 0.0000, 0.0000, 0.0000, 0.0000, 0.0000, 0.0000, 0.0000, 0.0000, 0.0000, 0.0000, 0.0000, 0.0000, 0.0000, 0.0000, 0.0000, 0.0000]
