// ============================================================================
// SOLAR IRRADIANCE SHAPE - Real NASA Data for 2025-06-27
// Location: Jaffna, Sri Lanka (9.7423N, 80.0352E)
// Source: NASA/POWER CERES SYN1deg
// ============================================================================

New Loadshape.Solar_20250627
~   npts=96  interval=0.25
~   mult=[0.0000, 0.0000, 0.0000, 0.0000, 0.0000, 0.0000, 0.0000, 0.0000, 0.0000, 0.0000, 0.0000, 0.0000, 0.0000, 0.0000, 0.0000, 0.0000, 0.0000, 0.0024, 0.0048, 0.0072, 0.0096, 0.0411, 0.0727, 0.1042, 0.1357, 0.1770, 0.2184, 0.2597, 0.3011, 0.3587, 0.4164, 0.4740, 0.5316, 0.5792, 0.6269, 0.6746, 0.7222, 0.7620, 0.8018, 0.8416, 0.8814, 0.8893, 0.8973, 0.9053, 0.9132, 0.9053, 0.8975, 0.8896, 0.8817, 0.8584, 0.8350, 0.8116, 0.7883, 0.7444, 0.7006, 0.6567, 0.6128, 0.5686, 0.5243, 0.4800, 0.4358, 0.3853, 0.3347, 0.2842, 0.2336, 0.1875, 0.1414, 0.0952, 0.0491, 0.0368, 0.0245, 0.0123, 0.0000, 0.0000, 0.0000, 0.0000, 0.0000, 0.0000, 0.0000, 0.0000, 0.0000, 0.0000, 0.0000, 0.0000, 0.0000, 0.0000, 0.0000, 0.0000, 0.0000, 0.0000, 0.0000, 0.0000, 0.0000, 0.0000, 0.0000, 0.0000]
