// ============================================================================
// SOLAR IRRADIANCE SHAPE - Real NASA Data for 2025-08-08
// Location: Jaffna, Sri Lanka (9.7423N, 80.0352E)
// Source: NASA/POWER CERES SYN1deg
// ============================================================================

New Loadshape.Solar_20250808
~   npts=96  interval=0.25
~   mult=[0.0000, 0.0000, 0.0000, 0.0000, 0.0000, 0.0000, 0.0000, 0.0000, 0.0000, 0.0000, 0.0000, 0.0000, 0.0000, 0.0000, 0.0000, 0.0000, 0.0000, 0.0018, 0.0036, 0.0054, 0.0072, 0.0338, 0.0604, 0.0870, 0.1136, 0.1612, 0.2088, 0.2564, 0.3040, 0.3523, 0.4007, 0.4490, 0.4973, 0.5399, 0.5825, 0.6250, 0.6676, 0.6982, 0.7288, 0.7595, 0.7901, 0.7955, 0.8010, 0.8064, 0.8119, 0.7889, 0.7659, 0.7430, 0.7200, 0.6762, 0.6324, 0.5886, 0.5448, 0.4635, 0.3822, 0.3009, 0.2196, 0.1827, 0.1458, 0.1089, 0.0720, 0.0652, 0.0585, 0.0517, 0.0450, 0.0363, 0.0276, 0.0190, 0.0103, 0.0077, 0.0052, 0.0026, 0.0000, 0.0000, 0.0000, 0.0000, 0.0000, 0.0000, 0.0000, 0.0000, 0.0000, 0.0000, 0.0000, 0.0000, 0.0000, 0.0000, 0.0000, 0.0000, 0.0000, 0.0000, 0.0000, 0.0000, 0.0000, 0.0000, 0.0000, 0.0000]
