// ============================================================================
// SOLAR IRRADIANCE SHAPE - Real NASA Data for 2025-06-19
// Location: Jaffna, Sri Lanka (9.7423N, 80.0352E)
// Source: NASA/POWER CERES SYN1deg
// ============================================================================

New Loadshape.Solar_20250619
~   npts=96  interval=0.25
~   mult=[0.0000, 0.0000, 0.0000, 0.0000, 0.0000, 0.0000, 0.0000, 0.0000, 0.0000, 0.0000, 0.0000, 0.0000, 0.0000, 0.0000, 0.0000, 0.0000, 0.0000, 0.0031, 0.0062, 0.0092, 0.0123, 0.0434, 0.0744, 0.1055, 0.1366, 0.1816, 0.2268, 0.2718, 0.3170, 0.3618, 0.4066, 0.4515, 0.4963, 0.5339, 0.5714, 0.6089, 0.6465, 0.6732, 0.6998, 0.7265, 0.7532, 0.7698, 0.7865, 0.8031, 0.8197, 0.8319, 0.8441, 0.8563, 0.8685, 0.8439, 0.8193, 0.7947, 0.7701, 0.7354, 0.7006, 0.6659, 0.6311, 0.5846, 0.5380, 0.4915, 0.4450, 0.3921, 0.3392, 0.2863, 0.2334, 0.1863, 0.1393, 0.0922, 0.0452, 0.0339, 0.0226, 0.0113, 0.0000, 0.0000, 0.0000, 0.0000, 0.0000, 0.0000, 0.0000, 0.0000, 0.0000, 0.0000, 0.0000, 0.0000, 0.0000, 0.0000, 0.0000, 0.0000, 0.0000, 0.0000, 0.0000, 0.0000, 0.0000, 0.0000, 0.0000, 0.0000]
