// ============================================================================
// SOLAR IRRADIANCE SHAPE - Real NASA Data for 2025-08-21
// Location: Jaffna, Sri Lanka (9.7423N, 80.0352E)
// Source: NASA/POWER CERES SYN1deg
// ============================================================================

New Loadshape.Solar_20250821
~   npts=96  interval=0.25
~   mult=[0.0000, 0.0000, 0.0000, 0.0000, 0.0000, 0.0000, 0.0000, 0.0000, 0.0000, 0.0000, 0.0000, 0.0000, 0.0000, 0.0000, 0.0000, 0.0000, 0.0000, 0.0020, 0.0040, 0.0060, 0.0080, 0.0414, 0.0747, 0.1081, 0.1415, 0.1896, 0.2376, 0.2857, 0.3338, 0.3928, 0.4519, 0.5110, 0.5700, 0.6193, 0.6686, 0.7178, 0.7671, 0.8066, 0.8461, 0.8856, 0.9251, 0.9277, 0.9303, 0.9329, 0.9355, 0.9289, 0.9223, 0.9157, 0.9091, 0.8816, 0.8542, 0.8268, 0.7994, 0.7577, 0.7160, 0.6743, 0.6327, 0.5865, 0.5403, 0.4941, 0.4478, 0.3916, 0.3354, 0.2792, 0.2229, 0.1758, 0.1287, 0.0816, 0.0345, 0.0259, 0.0173, 0.0086, 0.0000, 0.0000, 0.0000, 0.0000, 0.0000, 0.0000, 0.0000, 0.0000, 0.0000, 0.0000, 0.0000, 0.0000, 0.0000, 0.0000, 0.0000, 0.0000, 0.0000, 0.0000, 0.0000, 0.0000, 0.0000, 0.0000, 0.0000, 0.0000]
