// ============================================================================
// SOLAR IRRADIANCE SHAPE - Real NASA Data for 2025-06-18
// Location: Jaffna, Sri Lanka (9.7423N, 80.0352E)
// Source: NASA/POWER CERES SYN1deg
// ============================================================================

New Loadshape.Solar_20250618
~   npts=96  interval=0.25
~   mult=[0.0000, 0.0000, 0.0000, 0.0000, 0.0000, 0.0000, 0.0000, 0.0000, 0.0000, 0.0000, 0.0000, 0.0000, 0.0000, 0.0000, 0.0000, 0.0000, 0.0000, 0.0039, 0.0079, 0.0118, 0.0157, 0.0501, 0.0844, 0.1187, 0.1531, 0.2013, 0.2496, 0.2979, 0.3462, 0.3864, 0.4267, 0.4669, 0.5072, 0.5509, 0.5946, 0.6384, 0.6821, 0.7170, 0.7519, 0.7867, 0.8216, 0.8156, 0.8096, 0.8035, 0.7975, 0.7923, 0.7871, 0.7819, 0.7767, 0.7446, 0.7125, 0.6803, 0.6482, 0.6205, 0.5928, 0.5652, 0.5375, 0.4861, 0.4347, 0.3833, 0.3319, 0.2902, 0.2485, 0.2067, 0.1650, 0.1317, 0.0984, 0.0650, 0.0317, 0.0238, 0.0158, 0.0079, 0.0000, 0.0000, 0.0000, 0.0000, 0.0000, 0.0000, 0.0000, 0.0000, 0.0000, 0.0000, 0.0000, 0.0000, 0.0000, 0.0000, 0.0000, 0.0000, 0.0000, 0.0000, 0.0000, 0.0000, 0.0000, 0.0000, 0.0000, 0.0000]
