// ============================================================================
// SOLAR IRRADIANCE SHAPE - Real NASA Data for 2025-08-02
// Location: Jaffna, Sri Lanka (9.7423N, 80.0352E)
// Source: NASA/POWER CERES SYN1deg
// ============================================================================

New Loadshape.Solar_20250802
~   npts=96  interval=0.25
~   mult=[0.0000, 0.0000, 0.0000, 0.0000, 0.0000, 0.0000, 0.0000, 0.0000, 0.0000, 0.0000, 0.0000, 0.0000, 0.0000, 0.0000, 0.0000, 0.0000, 0.0000, 0.0015, 0.0029, 0.0044, 0.0058, 0.0284, 0.0509, 0.0735, 0.0960, 0.1383, 0.1806, 0.2229, 0.2652, 0.3105, 0.3558, 0.4011, 0.4464, 0.4902, 0.5341, 0.5779, 0.6218, 0.6579, 0.6941, 0.7302, 0.7664, 0.7805, 0.7947, 0.8088, 0.8230, 0.8068, 0.7906, 0.7744, 0.7582, 0.7231, 0.6881, 0.6531, 0.6180, 0.5641, 0.5101, 0.4562, 0.4022, 0.3674, 0.3325, 0.2977, 0.2628, 0.2296, 0.1963, 0.1631, 0.1298, 0.1035, 0.0773, 0.0510, 0.0247, 0.0185, 0.0124, 0.0062, 0.0000, 0.0000, 0.0000, 0.0000, 0.0000, 0.0000, 0.0000, 0.0000, 0.0000, 0.0000, 0.0000, 0.0000, 0.0000, 0.0000, 0.0000, 0.0000, 0.0000, 0.0000, 0.0000, 0.0000, 0.0000, 0.0000, 0.0000, 0.0000]
