// ============================================================================
// SOLAR IRRADIANCE SHAPE - Real NASA Data for 2025-07-27
// Location: Jaffna, Sri Lanka (9.7423N, 80.0352E)
// Source: NASA/POWER CERES SYN1deg
// ============================================================================

New Loadshape.Solar_20250727
~   npts=96  interval=0.25
~   mult=[0.0000, 0.0000, 0.0000, 0.0000, 0.0000, 0.0000, 0.0000, 0.0000, 0.0000, 0.0000, 0.0000, 0.0000, 0.0000, 0.0000, 0.0000, 0.0000, 0.0000, 0.0018, 0.0036, 0.0054, 0.0072, 0.0363, 0.0654, 0.0946, 0.1237, 0.1692, 0.2148, 0.2604, 0.3060, 0.3606, 0.4153, 0.4700, 0.5247, 0.5702, 0.6158, 0.6613, 0.7068, 0.7423, 0.7778, 0.8133, 0.8488, 0.8651, 0.8814, 0.8977, 0.9140, 0.9042, 0.8944, 0.8847, 0.8749, 0.8539, 0.8329, 0.8119, 0.7909, 0.7548, 0.7186, 0.6825, 0.6464, 0.6004, 0.5544, 0.5084, 0.4624, 0.4070, 0.3516, 0.2962, 0.2407, 0.1926, 0.1444, 0.0962, 0.0481, 0.0361, 0.0240, 0.0120, 0.0000, 0.0000, 0.0000, 0.0000, 0.0000, 0.0000, 0.0000, 0.0000, 0.0000, 0.0000, 0.0000, 0.0000, 0.0000, 0.0000, 0.0000, 0.0000, 0.0000, 0.0000, 0.0000, 0.0000, 0.0000, 0.0000, 0.0000, 0.0000]
