// ============================================================================
// SOLAR IRRADIANCE SHAPE - Real NASA Data for 2025-05-21
// Location: Jaffna, Sri Lanka (9.7423N, 80.0352E)
// Source: NASA/POWER CERES SYN1deg
// ============================================================================

New Loadshape.Solar_20250521
~   npts=96  interval=0.25
~   mult=[0.0000, 0.0000, 0.0000, 0.0000, 0.0000, 0.0000, 0.0000, 0.0000, 0.0000, 0.0000, 0.0000, 0.0000, 0.0000, 0.0000, 0.0000, 0.0000, 0.0000, 0.0044, 0.0087, 0.0131, 0.0174, 0.0549, 0.0923, 0.1297, 0.1672, 0.2213, 0.2754, 0.3295, 0.3836, 0.4307, 0.4778, 0.5249, 0.5720, 0.6074, 0.6428, 0.6783, 0.7137, 0.7508, 0.7879, 0.8250, 0.8621, 0.8729, 0.8838, 0.8946, 0.9054, 0.8906, 0.8756, 0.8608, 0.8458, 0.8234, 0.8010, 0.7786, 0.7561, 0.7136, 0.6711, 0.6286, 0.5860, 0.5374, 0.4887, 0.4400, 0.3913, 0.3408, 0.2904, 0.2399, 0.1894, 0.1500, 0.1105, 0.0711, 0.0316, 0.0237, 0.0158, 0.0079, 0.0000, 0.0000, 0.0000, 0.0000, 0.0000, 0.0000, 0.0000, 0.0000, 0.0000, 0.0000, 0.0000, 0.0000, 0.0000, 0.0000, 0.0000, 0.0000, 0.0000, 0.0000, 0.0000, 0.0000, 0.0000, 0.0000, 0.0000, 0.0000]
