// ============================================================================
// SOLAR IRRADIANCE SHAPE - Real NASA Data for 2025-05-19
// Location: Jaffna, Sri Lanka (9.7423N, 80.0352E)
// Source: NASA/POWER CERES SYN1deg
// ============================================================================

New Loadshape.Solar_20250519
~   npts=96  interval=0.25
~   mult=[0.0000, 0.0000, 0.0000, 0.0000, 0.0000, 0.0000, 0.0000, 0.0000, 0.0000, 0.0000, 0.0000, 0.0000, 0.0000, 0.0000, 0.0000, 0.0000, 0.0000, 0.0024, 0.0049, 0.0073, 0.0098, 0.0376, 0.0654, 0.0932, 0.1210, 0.1625, 0.2040, 0.2454, 0.2868, 0.3290, 0.3711, 0.4132, 0.4553, 0.4880, 0.5206, 0.5533, 0.5860, 0.6112, 0.6365, 0.6619, 0.6871, 0.6918, 0.6965, 0.7012, 0.7059, 0.6858, 0.6657, 0.6457, 0.6256, 0.6007, 0.5757, 0.5508, 0.5258, 0.5073, 0.4888, 0.4703, 0.4518, 0.4044, 0.3569, 0.3095, 0.2621, 0.2305, 0.1990, 0.1674, 0.1359, 0.1076, 0.0793, 0.0510, 0.0228, 0.0171, 0.0114, 0.0057, 0.0000, 0.0000, 0.0000, 0.0000, 0.0000, 0.0000, 0.0000, 0.0000, 0.0000, 0.0000, 0.0000, 0.0000, 0.0000, 0.0000, 0.0000, 0.0000, 0.0000, 0.0000, 0.0000, 0.0000, 0.0000, 0.0000, 0.0000, 0.0000]
