// ============================================================================
// SOLAR IRRADIANCE SHAPE - Real NASA Data for 2025-06-16
// Location: Jaffna, Sri Lanka (9.7423N, 80.0352E)
// Source: NASA/POWER CERES SYN1deg
// ============================================================================

New Loadshape.Solar_20250616
~   npts=96  interval=0.25
~   mult=[0.0000, 0.0000, 0.0000, 0.0000, 0.0000, 0.0000, 0.0000, 0.0000, 0.0000, 0.0000, 0.0000, 0.0000, 0.0000, 0.0000, 0.0000, 0.0000, 0.0000, 0.0036, 0.0073, 0.0109, 0.0145, 0.0413, 0.0681, 0.0949, 0.1218, 0.1620, 0.2024, 0.2426, 0.2830, 0.3236, 0.3643, 0.4049, 0.4456, 0.4792, 0.5128, 0.5464, 0.5800, 0.6033, 0.6267, 0.6500, 0.6734, 0.7013, 0.7293, 0.7573, 0.7852, 0.7784, 0.7716, 0.7647, 0.7578, 0.7445, 0.7312, 0.7179, 0.7046, 0.6631, 0.6216, 0.5802, 0.5387, 0.4809, 0.4231, 0.3653, 0.3076, 0.2668, 0.2260, 0.1852, 0.1444, 0.1158, 0.0872, 0.0586, 0.0300, 0.0225, 0.0150, 0.0075, 0.0000, 0.0000, 0.0000, 0.0000, 0.0000, 0.0000, 0.0000, 0.0000, 0.0000, 0.0000, 0.0000, 0.0000, 0.0000, 0.0000, 0.0000, 0.0000, 0.0000, 0.0000, 0.0000, 0.0000, 0.0000, 0.0000, 0.0000, 0.0000]
