// ============================================================================
// SOLAR IRRADIANCE SHAPE - Real NASA Data for 2025-06-13
// Location: Jaffna, Sri Lanka (9.7423N, 80.0352E)
// Source: NASA/POWER CERES SYN1deg
// ============================================================================

New Loadshape.Solar_20250613
~   npts=96  interval=0.25
~   mult=[0.0000, 0.0000, 0.0000, 0.0000, 0.0000, 0.0000, 0.0000, 0.0000, 0.0000, 0.0000, 0.0000, 0.0000, 0.0000, 0.0000, 0.0000, 0.0000, 0.0000, 0.0037, 0.0074, 0.0111, 0.0148, 0.0493, 0.0838, 0.1183, 0.1527, 0.2000, 0.2473, 0.2946, 0.3419, 0.3890, 0.4361, 0.4832, 0.5302, 0.5752, 0.6202, 0.6653, 0.7103, 0.7450, 0.7797, 0.8145, 0.8492, 0.8513, 0.8534, 0.8556, 0.8577, 0.8649, 0.8722, 0.8795, 0.8868, 0.8545, 0.8222, 0.7899, 0.7576, 0.7246, 0.6916, 0.6586, 0.6256, 0.5781, 0.5306, 0.4831, 0.4356, 0.3829, 0.3302, 0.2775, 0.2248, 0.1794, 0.1340, 0.0885, 0.0431, 0.0323, 0.0216, 0.0108, 0.0000, 0.0000, 0.0000, 0.0000, 0.0000, 0.0000, 0.0000, 0.0000, 0.0000, 0.0000, 0.0000, 0.0000, 0.0000, 0.0000, 0.0000, 0.0000, 0.0000, 0.0000, 0.0000, 0.0000, 0.0000, 0.0000, 0.0000, 0.0000]
