// ============================================================================
// SOLAR IRRADIANCE SHAPE - Real NASA Data for 2025-06-02
// Location: Jaffna, Sri Lanka (9.7423N, 80.0352E)
// Source: NASA/POWER CERES SYN1deg
// ============================================================================

New Loadshape.Solar_20250602
~   npts=96  interval=0.25
~   mult=[0.0000, 0.0000, 0.0000, 0.0000, 0.0000, 0.0000, 0.0000, 0.0000, 0.0000, 0.0000, 0.0000, 0.0000, 0.0000, 0.0000, 0.0000, 0.0000, 0.0000, 0.0043, 0.0086, 0.0129, 0.0172, 0.0509, 0.0846, 0.1183, 0.1520, 0.1919, 0.2318, 0.2718, 0.3117, 0.3665, 0.4212, 0.4760, 0.5307, 0.5695, 0.6084, 0.6472, 0.6860, 0.7155, 0.7451, 0.7747, 0.8042, 0.8225, 0.8408, 0.8592, 0.8775, 0.8681, 0.8586, 0.8492, 0.8398, 0.8043, 0.7689, 0.7334, 0.6979, 0.6542, 0.6105, 0.5667, 0.5230, 0.4701, 0.4172, 0.3643, 0.3114, 0.2703, 0.2292, 0.1881, 0.1470, 0.1171, 0.0872, 0.0573, 0.0274, 0.0206, 0.0137, 0.0069, 0.0000, 0.0000, 0.0000, 0.0000, 0.0000, 0.0000, 0.0000, 0.0000, 0.0000, 0.0000, 0.0000, 0.0000, 0.0000, 0.0000, 0.0000, 0.0000, 0.0000, 0.0000, 0.0000, 0.0000, 0.0000, 0.0000, 0.0000, 0.0000]
