// ============================================================================
// SOLAR IRRADIANCE SHAPE - Real NASA Data for 2025-07-17
// Location: Jaffna, Sri Lanka (9.7423N, 80.0352E)
// Source: NASA/POWER CERES SYN1deg
// ============================================================================

New Loadshape.Solar_20250717
~   npts=96  interval=0.25
~   mult=[0.0000, 0.0000, 0.0000, 0.0000, 0.0000, 0.0000, 0.0000, 0.0000, 0.0000, 0.0000, 0.0000, 0.0000, 0.0000, 0.0000, 0.0000, 0.0000, 0.0000, 0.0022, 0.0044, 0.0066, 0.0088, 0.0308, 0.0529, 0.0750, 0.0971, 0.1359, 0.1748, 0.2136, 0.2524, 0.2933, 0.3342, 0.3750, 0.4159, 0.4499, 0.4839, 0.5179, 0.5519, 0.5767, 0.6014, 0.6262, 0.6509, 0.6832, 0.7154, 0.7476, 0.7799, 0.7703, 0.7607, 0.7512, 0.7416, 0.7043, 0.6670, 0.6298, 0.5925, 0.5500, 0.5074, 0.4649, 0.4224, 0.4014, 0.3803, 0.3592, 0.3382, 0.2965, 0.2549, 0.2132, 0.1716, 0.1390, 0.1065, 0.0740, 0.0414, 0.0311, 0.0207, 0.0104, 0.0000, 0.0000, 0.0000, 0.0000, 0.0000, 0.0000, 0.0000, 0.0000, 0.0000, 0.0000, 0.0000, 0.0000, 0.0000, 0.0000, 0.0000, 0.0000, 0.0000, 0.0000, 0.0000, 0.0000, 0.0000, 0.0000, 0.0000, 0.0000]
