// ============================================================================
// SOLAR IRRADIANCE SHAPE - Real NASA Data for 2025-05-28
// Location: Jaffna, Sri Lanka (9.7423N, 80.0352E)
// Source: NASA/POWER CERES SYN1deg
// ============================================================================

New Loadshape.Solar_20250528
~   npts=96  interval=0.25
~   mult=[0.0000, 0.0000, 0.0000, 0.0000, 0.0000, 0.0000, 0.0000, 0.0000, 0.0000, 0.0000, 0.0000, 0.0000, 0.0000, 0.0000, 0.0000, 0.0000, 0.0000, 0.0046, 0.0091, 0.0137, 0.0182, 0.0561, 0.0940, 0.1319, 0.1698, 0.2198, 0.2698, 0.3198, 0.3698, 0.4141, 0.4584, 0.5027, 0.5470, 0.5922, 0.6373, 0.6825, 0.7276, 0.7604, 0.7932, 0.8259, 0.8587, 0.8662, 0.8736, 0.8811, 0.8886, 0.8731, 0.8576, 0.8421, 0.8266, 0.7944, 0.7622, 0.7300, 0.6978, 0.6595, 0.6213, 0.5830, 0.5448, 0.4963, 0.4477, 0.3992, 0.3507, 0.3054, 0.2600, 0.2147, 0.1694, 0.1340, 0.0987, 0.0634, 0.0280, 0.0210, 0.0140, 0.0070, 0.0000, 0.0000, 0.0000, 0.0000, 0.0000, 0.0000, 0.0000, 0.0000, 0.0000, 0.0000, 0.0000, 0.0000, 0.0000, 0.0000, 0.0000, 0.0000, 0.0000, 0.0000, 0.0000, 0.0000, 0.0000, 0.0000, 0.0000, 0.0000]
