// ============================================================================
// UJPS THERMAL GENERATOR SHAPE - Real Data for 2025-07-04
// Derived from CEB F05 metering data (net export = UJPS generation)
// Shared by all 3 UJPS generators (8 MW each)
// ============================================================================

New Loadshape.UJPS_20250704
~   npts=96  interval=0.25
~   mult=[0.9775, 0.9775, 0.9771, 0.9775, 0.9775, 0.9775, 0.9775, 0.9767, 0.9779, 0.9771, 0.9779, 0.9779, 0.9775, 0.9779, 0.9775, 0.9775, 0.9767, 0.9775, 0.9775, 0.9779, 0.9779, 0.9775, 0.9783, 0.9771, 0.9783, 0.9779, 0.9779, 0.9779, 0.9783, 0.9783, 0.9783, 0.9779, 0.9779, 0.9775, 0.9767, 0.9771, 0.9771, 0.9775, 0.4867, 0.0100, 0.0100, 0.0100, 0.0100, 0.0100, 0.0100, 0.0100, 0.0100, 0.0100, 0.0100, 0.0100, 0.0100, 0.0100, 0.0100, 0.0100, 0.0100, 0.0100, 0.0100, 0.0100, 0.0100, 0.3092, 0.9725, 0.9767, 0.9771, 0.6892, 0.6496, 0.6492, 0.6492, 0.6500, 0.6500, 0.6500, 0.6492, 0.6488, 0.6496, 0.6488, 0.6492, 0.6492, 0.6492, 0.7617, 0.9767, 0.9762, 0.9767, 0.9771, 0.9771, 0.9771, 0.9767, 0.9771, 0.9771, 0.9771, 0.9771, 0.9771, 0.9767, 0.9771, 0.9771, 0.9775, 0.9775, 0.9767]
