// ============================================================================
// UJPS THERMAL GENERATOR SHAPE - Real Data for 2025-07-22
// Derived from CEB F05 metering data (net export = UJPS generation)
// Shared by all 3 UJPS generators (8 MW each)
// ============================================================================

New Loadshape.UJPS_20250722
~   npts=96  interval=0.25
~   mult=[0.0100, 0.0100, 0.0100, 0.0100, 0.0100, 0.0100, 0.0100, 0.0100, 0.0100, 0.0100, 0.0100, 0.0100, 0.0100, 0.0100, 0.0100, 0.0100, 0.0100, 0.0100, 0.0100, 0.0100, 0.0100, 0.6117, 0.9800, 0.9771, 0.9771, 0.9775, 0.9775, 0.9775, 0.9775, 0.6462, 0.0100, 0.0100, 0.0100, 0.0100, 0.0100, 0.0100, 0.0100, 0.0100, 0.0100, 0.0100, 0.0100, 0.0100, 0.0100, 0.0100, 0.0100, 0.0100, 0.0100, 0.0100, 0.0100, 0.0100, 0.0100, 0.0100, 0.0100, 0.0100, 0.0100, 0.0100, 0.0100, 0.0100, 0.0100, 0.0100, 0.0100, 0.0100, 0.0100, 0.0100, 0.0100, 0.0100, 0.0100, 0.0100, 0.4458, 0.9762, 0.9767, 0.9771, 0.9775, 0.9771, 0.9775, 0.9775, 0.9771, 0.9771, 0.9771, 0.9771, 0.9771, 0.9771, 0.9775, 0.9771, 0.9042, 0.6921, 0.6917, 0.8675, 0.3946, 0.0100, 0.0100, 0.0100, 0.0100, 0.0100, 0.0100, 0.0100]
