// ============================================================================
// UJPS THERMAL GENERATOR SHAPE - Real Data for 2025-08-28
// Derived from CEB F05 metering data (net export = UJPS generation)
// Shared by all 3 UJPS generators (8 MW each)
// ============================================================================

New Loadshape.UJPS_20250828
~   npts=96  interval=0.25
~   mult=[0.0100, 0.0100, 0.0100, 0.0100, 0.0100, 0.0100, 0.0100, 0.0100, 0.0100, 0.0100, 0.0100, 0.0100, 0.0100, 0.0100, 0.0100, 0.0100, 0.0100, 0.0100, 0.0100, 0.0100, 0.0100, 0.1346, 0.6088, 0.9779, 0.9775, 0.9783, 0.9783, 0.9783, 0.8325, 0.0100, 0.0100, 0.0100, 0.0100, 0.0100, 0.0100, 0.0100, 0.0100, 0.0100, 0.0100, 0.0100, 0.0100, 0.0100, 0.0100, 0.0100, 0.0100, 0.0100, 0.0100, 0.0100, 0.0100, 0.0100, 0.0100, 0.0100, 0.0100, 0.0100, 0.0100, 0.0100, 0.0100, 0.0100, 0.0100, 0.0100, 0.0100, 0.0100, 0.0100, 0.0100, 0.1588, 0.8554, 0.9767, 0.9758, 0.9767, 0.9762, 0.9767, 0.9767, 0.9762, 0.9762, 0.9762, 0.9762, 0.9762, 0.9762, 0.9762, 0.9762, 0.9762, 0.9771, 0.9767, 0.9767, 0.9771, 0.9767, 0.9771, 0.9775, 0.9771, 0.9771, 0.9771, 0.9771, 0.9775, 0.9775, 0.9771, 0.9771]
