// ============================================================================
// UJPS THERMAL GENERATOR SHAPE - Real Data for 2025-06-06
// Derived from CEB F05 metering data (net export = UJPS generation)
// Shared by all 3 UJPS generators (8 MW each)
// ============================================================================

New Loadshape.UJPS_20250606
~   npts=96  interval=0.25
~   mult=[0.9771, 0.9767, 0.9771, 0.9771, 0.9767, 0.9767, 0.9771, 0.9771, 0.9771, 0.9771, 0.9771, 0.9775, 0.9775, 0.9779, 0.9779, 0.9775, 0.9779, 0.9779, 0.9779, 0.7408, 0.6512, 0.6512, 0.6517, 0.6521, 0.6517, 0.6517, 0.6521, 0.6517, 0.2096, 0.0100, 0.0100, 0.0100, 0.0100, 0.0100, 0.0100, 0.0100, 0.0100, 0.0100, 0.0100, 0.0100, 0.0100, 0.0100, 0.0100, 0.0100, 0.0100, 0.0100, 0.0100, 0.0100, 0.0100, 0.0100, 0.0100, 0.0100, 0.0100, 0.0100, 0.0100, 0.0100, 0.1633, 0.8879, 0.9779, 0.9758, 0.9762, 0.9767, 0.9467, 0.6483, 0.6479, 0.6483, 0.6483, 0.6483, 0.6475, 0.6479, 0.6475, 0.6483, 0.6479, 0.6479, 0.6479, 0.6475, 0.6546, 0.9325, 0.9767, 0.9767, 0.9767, 0.9767, 0.9767, 0.9771, 0.9775, 0.9775, 0.9771, 0.9771, 0.9771, 0.9771, 0.9771, 0.9771, 0.9771, 0.9767, 0.9767, 0.9771]
