// ============================================================================
// UJPS THERMAL GENERATOR SHAPE - Real Data for 2025-05-09
// Derived from CEB F05 metering data (net export = UJPS generation)
// Shared by all 3 UJPS generators (8 MW each)
// ============================================================================

New Loadshape.UJPS_20250509
~   npts=96  interval=0.25
~   mult=[0.0100, 0.0100, 0.0100, 0.0100, 0.0100, 0.0100, 0.0100, 0.0100, 0.0100, 0.0100, 0.0100, 0.0100, 0.0100, 0.0100, 0.0100, 0.0100, 0.0100, 0.0100, 0.0100, 0.0100, 0.0100, 0.0100, 0.0100, 0.0100, 0.0100, 0.0100, 0.0100, 0.0100, 0.0100, 0.0100, 0.0100, 0.0100, 0.0100, 0.0100, 0.0100, 0.0100, 0.0100, 0.0100, 0.0100, 0.0100, 0.0100, 0.0100, 0.0100, 0.0100, 0.0100, 0.0100, 0.0100, 0.0100, 0.0100, 0.0100, 0.0100, 0.0100, 0.0100, 0.0100, 0.0100, 0.0100, 0.0100, 0.0100, 0.0100, 0.0100, 0.0100, 0.4492, 0.8946, 0.8512, 0.6971, 0.6971, 0.7579, 0.6904, 0.8383, 0.9754, 0.9762, 0.9758, 0.9754, 0.9771, 0.9758, 0.9754, 0.9754, 0.9750, 0.9746, 0.9746, 0.9754, 0.9754, 0.9754, 0.9746, 0.9750, 0.9750, 0.9746, 0.9750, 0.9746, 0.9754, 0.9750, 0.9750, 0.9750, 0.9750, 0.9750, 0.9750]
