// ============================================================================
// UJPS THERMAL GENERATOR SHAPE - Real Data for 2025-07-31
// Derived from CEB F05 metering data (net export = UJPS generation)
// Shared by all 3 UJPS generators (8 MW each)
// ============================================================================

New Loadshape.UJPS_20250731
~   npts=96  interval=0.25
~   mult=[0.9775, 0.9775, 0.9775, 0.9779, 0.9775, 0.9771, 0.9771, 0.9775, 0.9771, 0.9775, 0.9771, 0.9775, 0.9771, 0.9771, 0.9771, 0.9771, 0.9771, 0.9775, 0.9771, 0.9775, 0.9775, 0.9775, 0.9775, 0.9775, 0.9775, 0.9775, 0.9775, 0.9775, 0.9775, 0.9775, 0.9775, 0.9775, 0.9767, 0.9771, 0.7121, 0.7283, 0.6500, 0.6504, 0.6862, 0.9738, 0.7008, 0.0100, 0.0100, 0.0100, 0.0100, 0.0100, 0.0100, 0.0100, 0.0100, 0.0100, 0.0100, 0.0100, 0.0100, 0.0100, 0.4067, 0.6488, 0.6583, 0.9442, 0.9762, 0.9758, 0.9762, 0.9762, 0.9762, 0.9758, 0.9758, 0.9758, 0.9758, 0.9758, 0.9758, 0.9762, 0.9762, 0.9767, 0.9758, 0.9767, 0.9746, 0.9758, 0.9758, 0.9762, 0.9762, 0.9762, 0.9754, 0.9754, 0.9754, 0.9754, 0.9754, 0.9754, 0.9750, 0.9750, 0.9754, 0.9754, 0.9754, 0.9754, 0.9750, 0.9750, 0.9750, 0.9750]
