// ============================================================================
// UJPS THERMAL GENERATOR SHAPE - Real Data for 2025-06-23
// Derived from CEB F05 metering data (net export = UJPS generation)
// Shared by all 3 UJPS generators (8 MW each)
// ============================================================================

New Loadshape.UJPS_20250623
~   npts=96  interval=0.25
~   mult=[0.0100, 0.0100, 0.0100, 0.0100, 0.0100, 0.0100, 0.0100, 0.0100, 0.0100, 0.0100, 0.0100, 0.0100, 0.0100, 0.0100, 0.0100, 0.0100, 0.0100, 0.0100, 0.0100, 0.0100, 0.0100, 0.0100, 0.0100, 0.6308, 0.9783, 0.9796, 0.9817, 0.9783, 0.7912, 0.0100, 0.0100, 0.0100, 0.0100, 0.0100, 0.0100, 0.0100, 0.0100, 0.0100, 0.0100, 0.0100, 0.0100, 0.0100, 0.0100, 0.0100, 0.0100, 0.0100, 0.0100, 0.0100, 0.0100, 0.0100, 0.0100, 0.0100, 0.0100, 0.0100, 0.0100, 0.0100, 0.0100, 0.0100, 0.0100, 0.0100, 0.6558, 0.9771, 0.7146, 0.6962, 0.7517, 0.6883, 0.6829, 0.7596, 0.7579, 0.6833, 0.6962, 0.9704, 0.9775, 0.9775, 0.9767, 0.9775, 0.9771, 0.9771, 0.9771, 0.9771, 0.9771, 0.9775, 0.9767, 0.9771, 0.9767, 0.9767, 0.9775, 0.9775, 0.9775, 0.8292, 0.0100, 0.0100, 0.0100, 0.0100, 0.0100, 0.0100]
