// ============================================================================
// UJPS THERMAL GENERATOR SHAPE - Real Data for 2025-06-26
// Derived from CEB F05 metering data (net export = UJPS generation)
// Shared by all 3 UJPS generators (8 MW each)
// ============================================================================

New Loadshape.UJPS_20250626
~   npts=96  interval=0.25
~   mult=[0.0100, 0.0100, 0.0100, 0.0100, 0.0100, 0.0100, 0.0100, 0.0100, 0.0100, 0.0100, 0.0100, 0.0100, 0.0100, 0.0100, 0.0100, 0.0100, 0.0100, 0.0100, 0.0100, 0.0100, 0.0100, 0.0100, 0.0100, 0.0100, 0.0100, 0.0100, 0.0100, 0.0100, 0.0100, 0.0100, 0.0100, 0.0100, 0.0100, 0.0100, 0.0100, 0.0100, 0.0100, 0.0100, 0.0100, 0.0100, 0.0100, 0.0100, 0.0100, 0.0100, 0.0100, 0.0100, 0.0100, 0.0100, 0.0100, 0.0100, 0.0100, 0.0100, 0.0100, 0.0100, 0.0100, 0.0100, 0.0100, 0.0100, 0.0100, 0.0100, 0.0100, 0.0100, 0.0100, 0.0100, 0.2096, 0.7983, 0.9775, 0.9767, 0.9771, 0.9762, 0.9762, 0.9779, 0.9762, 0.9758, 0.9754, 0.9775, 0.9775, 0.9771, 0.9779, 0.9775, 0.9779, 0.9779, 0.9775, 0.9775, 0.9775, 0.9775, 0.9775, 0.9779, 0.9783, 0.9779, 0.9783, 0.9733, 0.0450, 0.0100, 0.0100, 0.0100]
