// ============================================================================
// UJPS THERMAL GENERATOR SHAPE - Real Data for 2025-07-19
// Derived from CEB F05 metering data (net export = UJPS generation)
// Shared by all 3 UJPS generators (8 MW each)
// ============================================================================

New Loadshape.UJPS_20250719
~   npts=96  interval=0.25
~   mult=[0.9775, 0.9775, 0.9775, 0.9775, 0.9771, 0.9775, 0.9775, 0.9779, 0.9779, 0.9775, 0.9779, 0.9779, 0.9779, 0.9779, 0.9779, 0.9775, 0.5913, 0.4817, 0.4812, 0.4812, 0.4808, 0.4812, 0.4817, 0.4812, 0.4812, 0.4817, 0.4812, 0.4817, 0.4817, 0.4817, 0.4188, 0.0100, 0.0100, 0.0100, 0.0100, 0.0100, 0.0100, 0.0100, 0.0100, 0.0100, 0.0100, 0.0100, 0.0100, 0.0100, 0.0100, 0.0100, 0.0100, 0.0100, 0.0100, 0.0100, 0.0100, 0.0100, 0.0100, 0.0100, 0.0100, 0.0100, 0.0100, 0.0100, 0.0100, 0.0100, 0.0100, 0.0100, 0.0100, 0.0100, 0.0100, 0.0100, 0.0100, 0.6150, 0.9629, 0.9788, 0.9812, 0.9825, 0.9825, 0.9829, 0.9825, 0.9829, 0.9821, 0.9804, 0.9783, 0.9788, 0.9783, 0.9783, 0.9779, 0.9779, 0.9783, 0.9783, 0.5242, 0.0100, 0.0100, 0.0100, 0.0100, 0.0100, 0.0100, 0.0100, 0.0100, 0.0100]
