// ============================================================================
// UJPS THERMAL GENERATOR SHAPE - Real Data for 2025-08-14
// Derived from CEB F05 metering data (net export = UJPS generation)
// Shared by all 3 UJPS generators (8 MW each)
// ============================================================================

New Loadshape.UJPS_20250814
~   npts=96  interval=0.25
~   mult=[0.0100, 0.0100, 0.0100, 0.0100, 0.0100, 0.0100, 0.0100, 0.0100, 0.0100, 0.0100, 0.0100, 0.0100, 0.0100, 0.0100, 0.0100, 0.0100, 0.0100, 0.0100, 0.0100, 0.0100, 0.0100, 0.0100, 0.0100, 0.0100, 0.0100, 0.0100, 0.0100, 0.0100, 0.0100, 0.0100, 0.0100, 0.0100, 0.0100, 0.0100, 0.0100, 0.0100, 0.0100, 0.0100, 0.0100, 0.0100, 0.0100, 0.0100, 0.0100, 0.0100, 0.0100, 0.0100, 0.0100, 0.0100, 0.0100, 0.0100, 0.0100, 0.0100, 0.0100, 0.0100, 0.0100, 0.0100, 0.0100, 0.0100, 0.0100, 0.0100, 0.0100, 0.0100, 0.0100, 0.1362, 0.5988, 0.6500, 0.6504, 0.6492, 0.6483, 0.6492, 0.6488, 0.6500, 0.6492, 0.6500, 0.6858, 0.9450, 0.9771, 0.9762, 0.9771, 0.9767, 0.9771, 0.9771, 0.9767, 0.9775, 0.9767, 0.9775, 0.9771, 0.9779, 0.9775, 0.9771, 0.9775, 0.9771, 0.9779, 0.9775, 0.9779, 0.9775]
