// ============================================================================
// UJPS THERMAL GENERATOR SHAPE - Real Data for 2025-05-05
// Derived from CEB F05 metering data (net export = UJPS generation)
// Shared by all 3 UJPS generators (8 MW each)
// ============================================================================

New Loadshape.UJPS_20250505
~   npts=96  interval=0.25
~   mult=[0.0100, 0.0100, 0.0100, 0.0100, 0.0100, 0.0100, 0.0100, 0.0100, 0.0100, 0.0100, 0.0100, 0.0100, 0.0100, 0.0100, 0.0100, 0.0100, 0.0100, 0.0100, 0.0100, 0.0100, 0.0100, 0.0100, 0.0100, 0.0100, 0.0100, 0.0100, 0.0100, 0.0100, 0.0100, 0.0100, 0.0100, 0.0100, 0.0100, 0.0100, 0.0100, 0.0100, 0.0100, 0.0100, 0.0100, 0.0100, 0.0100, 0.0100, 0.0100, 0.0100, 0.0100, 0.0100, 0.0100, 0.0100, 0.0100, 0.0100, 0.0100, 0.0100, 0.0100, 0.0100, 0.0100, 0.0100, 0.0100, 0.0100, 0.0100, 0.0100, 0.0100, 0.0100, 0.0100, 0.0100, 0.0100, 0.0100, 0.0100, 0.2658, 0.8400, 0.9754, 0.9754, 0.9758, 0.9762, 0.9758, 0.9762, 0.9758, 0.9758, 0.9762, 0.9758, 0.9767, 0.9767, 0.9767, 0.9762, 0.9762, 0.9762, 0.9771, 0.9762, 0.9767, 0.9083, 0.0100, 0.0100, 0.0100, 0.0100, 0.0100, 0.0100, 0.0100]
