// ============================================================================
// UJPS THERMAL GENERATOR SHAPE - Real Data for 2025-08-29
// Derived from CEB F05 metering data (net export = UJPS generation)
// Shared by all 3 UJPS generators (8 MW each)
// ============================================================================

New Loadshape.UJPS_20250829
~   npts=96  interval=0.25
~   mult=[0.9771, 0.9771, 0.9771, 0.9775, 0.9775, 0.9779, 0.9775, 0.9775, 0.6983, 0.4812, 0.4808, 0.4808, 0.4808, 0.4808, 0.4808, 0.4808, 0.5988, 0.9775, 0.9775, 0.9775, 0.9775, 0.9775, 0.9775, 0.9775, 0.9775, 0.9779, 0.9775, 0.9775, 0.9775, 0.9779, 0.9775, 0.5967, 0.1921, 0.0100, 0.0100, 0.0100, 0.0100, 0.0100, 0.0100, 0.0100, 0.0100, 0.0100, 0.0100, 0.0100, 0.0100, 0.0100, 0.0100, 0.0100, 0.0100, 0.0100, 0.0100, 0.0100, 0.0100, 0.0100, 0.0100, 0.0100, 0.0100, 0.0100, 0.0429, 0.7575, 0.9767, 0.9762, 0.9762, 0.9762, 0.9762, 0.9758, 0.9767, 0.9762, 0.9762, 0.9762, 0.9771, 0.9767, 0.9767, 0.9771, 0.9771, 0.9762, 0.9762, 0.9762, 0.9771, 0.9771, 0.9771, 0.9767, 0.9771, 0.9767, 0.9771, 0.9762, 0.9771, 0.9775, 0.9771, 0.9771, 0.9771, 0.9771, 0.9775, 0.9775, 0.9775, 0.9779]
