// ============================================================================
// UJPS THERMAL GENERATOR SHAPE - Real Data for 2025-05-19
// Derived from CEB F05 metering data (net export = UJPS generation)
// Shared by all 3 UJPS generators (8 MW each)
// ============================================================================

New Loadshape.UJPS_20250519
~   npts=96  interval=0.25
~   mult=[0.0100, 0.0100, 0.0100, 0.0100, 0.0100, 0.0100, 0.0100, 0.0100, 0.0100, 0.0100, 0.0100, 0.0100, 0.0100, 0.0100, 0.0100, 0.0100, 0.0100, 0.0100, 0.0100, 0.0100, 0.0100, 0.0100, 0.3838, 0.6067, 0.6492, 0.6479, 0.6496, 0.6488, 0.6483, 0.6483, 0.6483, 0.6479, 0.6475, 0.6475, 0.6479, 0.6475, 0.6475, 0.6483, 0.6500, 0.6479, 0.6483, 0.6479, 0.6492, 0.6529, 0.6538, 0.6529, 0.6529, 0.6525, 0.6529, 0.6529, 0.6533, 0.6529, 0.6529, 0.6529, 0.6525, 0.6529, 0.6529, 0.6525, 0.6517, 0.6529, 0.6508, 0.6521, 0.6508, 0.3333, 0.3188, 0.3183, 0.3183, 0.3179, 0.3183, 0.3183, 0.3188, 0.3188, 0.3188, 0.3183, 0.3188, 0.3179, 0.3188, 0.3188, 0.4008, 0.6504, 0.6504, 0.6504, 0.6500, 0.6504, 0.6504, 0.6508, 0.6504, 0.6504, 0.6504, 0.3829, 0.3192, 0.3196, 0.3192, 0.2021, 0.0100, 0.0100]
