// ============================================================================
// UJPS THERMAL GENERATOR SHAPE - Real Data for 2025-07-15
// Derived from CEB F05 metering data (net export = UJPS generation)
// Shared by all 3 UJPS generators (8 MW each)
// ============================================================================

New Loadshape.UJPS_20250715
~   npts=96  interval=0.25
~   mult=[0.0100, 0.0100, 0.0100, 0.0100, 0.0100, 0.0100, 0.0100, 0.0100, 0.0100, 0.0100, 0.0100, 0.0100, 0.0100, 0.0100, 0.0100, 0.0100, 0.0100, 0.0100, 0.0100, 0.0100, 0.0100, 0.0100, 0.1271, 0.5888, 0.9762, 0.9783, 0.9779, 0.9775, 0.7408, 0.0100, 0.0100, 0.0100, 0.0100, 0.0100, 0.0100, 0.0100, 0.0100, 0.0100, 0.0100, 0.0100, 0.0100, 0.0100, 0.0100, 0.0100, 0.0100, 0.0100, 0.0100, 0.0100, 0.0100, 0.0100, 0.0100, 0.0100, 0.0100, 0.0100, 0.0100, 0.0100, 0.0100, 0.0100, 0.0100, 0.0100, 0.0471, 0.7012, 0.8996, 0.9767, 0.9762, 0.9762, 0.9767, 0.9767, 0.9767, 0.9767, 0.9762, 0.9767, 0.9767, 0.9771, 0.9767, 0.9771, 0.9762, 0.9771, 0.9771, 0.9775, 0.9771, 0.9771, 0.9771, 0.9771, 0.9775, 0.9775, 0.9775, 0.9767, 0.9771, 0.9771, 0.9775, 0.9779, 0.9775, 0.9779, 0.4325, 0.0100]
