// ============================================================================
// UJPS THERMAL GENERATOR SHAPE - Real Data for 2025-08-04
// Derived from CEB F05 metering data (net export = UJPS generation)
// Shared by all 3 UJPS generators (8 MW each)
// ============================================================================

New Loadshape.UJPS_20250804
~   npts=96  interval=0.25
~   mult=[0.0100, 0.0100, 0.0100, 0.0100, 0.0100, 0.0100, 0.0100, 0.0100, 0.0100, 0.0100, 0.0100, 0.0100, 0.0100, 0.0100, 0.0100, 0.0100, 0.0100, 0.0100, 0.0100, 0.0100, 0.0100, 0.0100, 0.0100, 0.0100, 0.0100, 0.0100, 0.0100, 0.0100, 0.0100, 0.0100, 0.0100, 0.0100, 0.0100, 0.0100, 0.0100, 0.0100, 0.0100, 0.0100, 0.0100, 0.0100, 0.0100, 0.0100, 0.0100, 0.0100, 0.0100, 0.0100, 0.0100, 0.0100, 0.0100, 0.0100, 0.0100, 0.0100, 0.0100, 0.0100, 0.0100, 0.0100, 0.0100, 0.0100, 0.0100, 0.0100, 0.0100, 0.0100, 0.0100, 0.0804, 0.8217, 0.9762, 0.9767, 0.9762, 0.9762, 0.9762, 0.9762, 0.9762, 0.9767, 0.9767, 0.9767, 0.9771, 0.9771, 0.9771, 0.9771, 0.9771, 0.9771, 0.9771, 0.9771, 0.9771, 0.9771, 0.9767, 0.9771, 0.9767, 0.9771, 0.9771, 0.9771, 0.9771, 0.9767, 0.4792, 0.0100, 0.0100]
