// ============================================================================
// UJPS THERMAL GENERATOR SHAPE - Real Data for 2025-07-18
// Derived from CEB F05 metering data (net export = UJPS generation)
// Shared by all 3 UJPS generators (8 MW each)
// ============================================================================

New Loadshape.UJPS_20250718
~   npts=96  interval=0.25
~   mult=[0.9775, 0.9779, 0.9779, 0.9779, 0.9783, 0.9779, 0.9783, 0.9783, 0.9779, 0.9779, 0.9783, 0.9783, 0.9783, 0.9783, 0.9779, 0.9783, 0.9779, 0.9783, 0.9783, 0.9779, 0.9779, 0.9783, 0.9783, 0.9783, 0.9779, 0.9783, 0.9788, 0.9783, 0.9788, 0.9779, 0.9783, 0.9654, 0.0250, 0.0100, 0.0100, 0.0100, 0.0100, 0.0100, 0.0100, 0.0100, 0.0100, 0.0100, 0.0100, 0.0100, 0.0100, 0.0100, 0.0100, 0.0100, 0.0100, 0.0100, 0.0100, 0.0100, 0.0100, 0.0100, 0.0100, 0.0100, 0.0100, 0.0100, 0.3896, 0.9721, 0.9767, 0.9767, 0.9767, 0.9767, 0.9775, 0.9775, 0.9771, 0.9775, 0.9771, 0.9775, 0.9775, 0.9779, 0.9779, 0.9779, 0.9771, 0.9775, 0.9775, 0.9771, 0.9771, 0.9767, 0.9775, 0.9775, 0.9775, 0.9775, 0.9771, 0.9775, 0.9775, 0.9775, 0.9775, 0.9771, 0.9779, 0.9775, 0.9779, 0.9779, 0.9775, 0.9775]
