// ============================================================================
// UJPS THERMAL GENERATOR SHAPE - Real Data for 2025-08-21
// Derived from CEB F05 metering data (net export = UJPS generation)
// Shared by all 3 UJPS generators (8 MW each)
// ============================================================================

New Loadshape.UJPS_20250821
~   npts=96  interval=0.25
~   mult=[0.9762, 0.9767, 0.9758, 0.9762, 0.9758, 0.9762, 0.9758, 0.9762, 0.9762, 0.9771, 0.9775, 0.9771, 0.9775, 0.9775, 0.9771, 0.9775, 0.9775, 0.9775, 0.9775, 0.9771, 0.9771, 0.9771, 0.9771, 0.9771, 0.9775, 0.9779, 0.9779, 0.9779, 0.9775, 0.9779, 0.9779, 0.9775, 0.9771, 0.9775, 0.9771, 0.9767, 0.9771, 0.9767, 0.9771, 0.9767, 0.9767, 0.8058, 0.0100, 0.0100, 0.0100, 0.0100, 0.0100, 0.0100, 0.0100, 0.0100, 0.0100, 0.0100, 0.0100, 0.0100, 0.0100, 0.0100, 0.0100, 0.0100, 0.3292, 0.6575, 0.8996, 0.9800, 0.9808, 0.9800, 0.9804, 0.9592, 0.9696, 0.9667, 0.9767, 0.9608, 0.9771, 0.9771, 0.9771, 0.9771, 0.9767, 0.9767, 0.9771, 0.9771, 0.9767, 0.9767, 0.9771, 0.9771, 0.9775, 0.9775, 0.9771, 0.9771, 0.9767, 0.9767, 0.9775, 0.9771, 0.9767, 0.9771, 0.9775, 0.9775, 0.9771, 0.9775]
