// ============================================================================
// UJPS THERMAL GENERATOR SHAPE - Real Data for 2025-08-19
// Derived from CEB F05 metering data (net export = UJPS generation)
// Shared by all 3 UJPS generators (8 MW each)
// ============================================================================

New Loadshape.UJPS_20250819
~   npts=96  interval=0.25
~   mult=[0.9767, 0.9767, 0.9767, 0.9767, 0.9771, 0.9771, 0.6033, 0.0100, 0.0100, 0.0100, 0.0100, 0.0100, 0.0100, 0.0100, 0.0100, 0.0100, 0.0100, 0.0100, 0.0100, 0.0100, 0.0467, 0.8442, 0.9767, 0.9771, 0.9775, 0.9775, 0.9775, 0.9779, 0.9775, 0.9771, 0.4725, 0.0100, 0.0100, 0.0100, 0.0100, 0.0100, 0.0100, 0.0100, 0.0100, 0.0100, 0.0100, 0.0100, 0.0100, 0.0100, 0.0100, 0.0100, 0.0100, 0.0100, 0.0100, 0.0100, 0.0100, 0.0100, 0.0100, 0.0100, 0.0100, 0.0100, 0.0100, 0.0100, 0.0100, 0.0100, 0.0100, 0.0100, 0.0100, 0.0100, 0.1746, 0.9125, 0.9792, 0.9792, 0.9800, 0.9771, 0.9762, 0.9758, 0.9758, 0.9754, 0.9762, 0.9762, 0.9758, 0.9762, 0.9762, 0.9758, 0.9758, 0.9758, 0.9762, 0.9762, 0.9758, 0.9762, 0.9762, 0.9762, 0.9771, 0.9771, 0.9771, 0.9767, 0.9767, 0.9762, 0.9762, 0.9762]
