// ============================================================================
// UJPS THERMAL GENERATOR SHAPE - Real Data for 2025-05-10
// Derived from CEB F05 metering data (net export = UJPS generation)
// Shared by all 3 UJPS generators (8 MW each)
// ============================================================================

New Loadshape.UJPS_20250510
~   npts=96  interval=0.25
~   mult=[0.9754, 0.9754, 0.9758, 0.9754, 0.9746, 0.9750, 0.9746, 0.9754, 0.9754, 0.9750, 0.9750, 0.9746, 0.9750, 0.9754, 0.9754, 0.9758, 0.9750, 0.9754, 0.9754, 0.9754, 0.9758, 0.9758, 0.9758, 0.9754, 0.9754, 0.9754, 0.9754, 0.9758, 0.9758, 0.5358, 0.4796, 0.4796, 0.4796, 0.4796, 0.4796, 0.4792, 0.4708, 0.4562, 0.4679, 0.4788, 0.3950, 0.3504, 0.3508, 0.2642, 0.1246, 0.0100, 0.0100, 0.0100, 0.0100, 0.0100, 0.0100, 0.0100, 0.0100, 0.0100, 0.0100, 0.0100, 0.0100, 0.0100, 0.0100, 0.0100, 0.0100, 0.0100, 0.0100, 0.2558, 0.9462, 0.9767, 0.9767, 0.9762, 0.9762, 0.9762, 0.9762, 0.9767, 0.9771, 0.9762, 0.9767, 0.9771, 0.9767, 0.9771, 0.9758, 0.9767, 0.9767, 0.9758, 0.9767, 0.9762, 0.9762, 0.9767, 0.9762, 0.9762, 0.9767, 0.9762, 0.9767, 0.9767, 0.9767, 0.9771, 0.9758, 0.9767]
