// ============================================================================
// UJPS THERMAL GENERATOR SHAPE - Real Data for 2025-08-24
// Derived from CEB F05 metering data (net export = UJPS generation)
// Shared by all 3 UJPS generators (8 MW each)
// ============================================================================

New Loadshape.UJPS_20250824
~   npts=96  interval=0.25
~   mult=[0.9775, 0.9775, 0.9771, 0.5183, 0.4812, 0.4808, 0.4808, 0.4796, 0.4804, 0.4804, 0.4812, 0.4808, 0.4808, 0.4812, 0.4804, 0.4804, 0.4804, 0.4808, 0.5712, 0.9783, 0.9792, 0.9792, 0.9788, 0.9783, 0.9783, 0.9788, 0.9783, 0.9788, 0.9788, 0.9792, 0.9788, 0.9788, 0.6912, 0.0100, 0.0100, 0.0100, 0.0100, 0.0100, 0.0100, 0.0100, 0.0100, 0.0100, 0.0100, 0.0100, 0.0100, 0.0100, 0.0100, 0.0100, 0.0100, 0.0100, 0.0100, 0.0100, 0.0100, 0.0100, 0.0100, 0.0100, 0.0100, 0.0100, 0.0100, 0.0100, 0.0100, 0.0100, 0.0100, 0.0100, 0.0100, 0.0100, 0.0100, 0.0100, 0.0100, 0.3458, 0.9150, 0.9788, 0.9800, 0.9804, 0.9804, 0.9800, 0.9796, 0.9800, 0.9796, 0.9796, 0.9800, 0.9796, 0.9796, 0.9804, 0.9804, 0.9800, 0.9804, 0.9796, 0.9796, 0.9804, 0.8946, 0.6883, 0.6871, 0.8500, 0.3575, 0.0100]
