// ============================================================================
// UJPS THERMAL GENERATOR SHAPE - Real Data for 2025-07-28
// Derived from CEB F05 metering data (net export = UJPS generation)
// Shared by all 3 UJPS generators (8 MW each)
// ============================================================================

New Loadshape.UJPS_20250728
~   npts=96  interval=0.25
~   mult=[0.0100, 0.0100, 0.0100, 0.0100, 0.0100, 0.0100, 0.0100, 0.0100, 0.0100, 0.0100, 0.0100, 0.0100, 0.0100, 0.0100, 0.0100, 0.0100, 0.0100, 0.0100, 0.0100, 0.0100, 0.0100, 0.0100, 0.2479, 0.9162, 0.9771, 0.9775, 0.9775, 0.9446, 0.0100, 0.0100, 0.0100, 0.0100, 0.0100, 0.0100, 0.0100, 0.0100, 0.0100, 0.0100, 0.0100, 0.0100, 0.0100, 0.0100, 0.0100, 0.0100, 0.0100, 0.0100, 0.0100, 0.0100, 0.0100, 0.0100, 0.0100, 0.0100, 0.0100, 0.0100, 0.0100, 0.0100, 0.0100, 0.0100, 0.0100, 0.0100, 0.0100, 0.0100, 0.0100, 0.0100, 0.0862, 0.8479, 0.9762, 0.9771, 0.9767, 0.9767, 0.9771, 0.9771, 0.9771, 0.9779, 0.9775, 0.9771, 0.9771, 0.9767, 0.9771, 0.9771, 0.9775, 0.9775, 0.9775, 0.9775, 0.9771, 0.9775, 0.9775, 0.9775, 0.9771, 0.9775, 0.9771, 0.9771, 0.9771, 0.9771, 0.9771, 0.9775]
