// ============================================================================
// UJPS THERMAL GENERATOR SHAPE - Real Data for 2025-06-20
// Derived from CEB F05 metering data (net export = UJPS generation)
// Shared by all 3 UJPS generators (8 MW each)
// ============================================================================

New Loadshape.UJPS_20250620
~   npts=96  interval=0.25
~   mult=[0.0100, 0.0100, 0.0100, 0.0100, 0.0100, 0.0100, 0.0100, 0.0100, 0.0100, 0.0100, 0.0100, 0.0100, 0.0100, 0.0100, 0.0100, 0.0100, 0.0100, 0.0100, 0.0100, 0.0100, 0.0100, 0.0100, 0.3646, 0.9058, 0.9767, 0.9771, 0.9775, 0.9775, 0.5442, 0.0100, 0.0100, 0.0100, 0.0100, 0.0100, 0.0100, 0.0100, 0.0100, 0.0100, 0.0100, 0.0100, 0.0100, 0.0100, 0.0100, 0.0100, 0.0100, 0.0100, 0.0100, 0.0100, 0.0100, 0.0100, 0.0100, 0.0100, 0.0100, 0.0100, 0.0100, 0.0100, 0.0100, 0.0100, 0.0100, 0.0100, 0.0100, 0.0100, 0.0100, 0.0100, 0.0471, 0.7108, 0.9338, 0.9771, 0.9771, 0.9767, 0.9771, 0.9767, 0.9775, 0.9767, 0.9767, 0.9767, 0.9771, 0.9771, 0.9767, 0.9771, 0.9762, 0.9767, 0.9771, 0.9771, 0.9767, 0.9762, 0.9771, 0.9767, 0.9762, 0.9767, 0.9767, 0.9762, 0.3238, 0.0100, 0.0100, 0.0100]
