// ============================================================================
// UJPS THERMAL GENERATOR SHAPE - Real Data for 2025-05-12
// Derived from CEB F05 metering data (net export = UJPS generation)
// Shared by all 3 UJPS generators (8 MW each)
// ============================================================================

New Loadshape.UJPS_20250512
~   npts=96  interval=0.25
~   mult=[0.9767, 0.9767, 0.9767, 0.9767, 0.9767, 0.9771, 0.9775, 0.9771, 0.9771, 0.9767, 0.9767, 0.9771, 0.9771, 0.9771, 0.5371, 0.4808, 0.4808, 0.4808, 0.4808, 0.4804, 0.4804, 0.4808, 0.4804, 0.4804, 0.4746, 0.3379, 0.0100, 0.0100, 0.0100, 0.0100, 0.0100, 0.0100, 0.0100, 0.0100, 0.0100, 0.0100, 0.0100, 0.0100, 0.0100, 0.0100, 0.0100, 0.0100, 0.0100, 0.0100, 0.0100, 0.0100, 0.0100, 0.0100, 0.0100, 0.0100, 0.0100, 0.0100, 0.0100, 0.0100, 0.0100, 0.0100, 0.0100, 0.0100, 0.0100, 0.0100, 0.0100, 0.0100, 0.0100, 0.0100, 0.0100, 0.0100, 0.0100, 0.0100, 0.0100, 0.0100, 0.0100, 0.0100, 0.0100, 0.0100, 0.0100, 0.0867, 0.5358, 0.8296, 0.9771, 0.9767, 0.9767, 0.9762, 0.9767, 0.9492, 0.0100, 0.0100, 0.0100, 0.0100, 0.0100, 0.0100, 0.0100, 0.0100, 0.0100, 0.0100, 0.0100, 0.0100]
