// ============================================================================
// UJPS THERMAL GENERATOR SHAPE - Real Data for 2025-07-09
// Derived from CEB F05 metering data (net export = UJPS generation)
// Shared by all 3 UJPS generators (8 MW each)
// ============================================================================

New Loadshape.UJPS_20250709
~   npts=96  interval=0.25
~   mult=[0.9775, 0.9779, 0.9779, 0.9779, 0.9779, 0.9775, 0.9779, 0.9779, 0.9779, 0.9779, 0.6258, 0.4817, 0.4812, 0.4812, 0.4812, 0.4812, 0.4808, 0.4817, 0.5496, 0.9775, 0.9775, 0.9779, 0.9775, 0.9779, 0.9779, 0.9779, 0.9779, 0.9783, 0.9783, 0.9783, 0.9783, 0.9779, 0.9779, 0.9779, 0.9779, 0.9779, 0.9779, 0.9771, 0.7742, 0.6879, 0.6892, 0.8379, 0.0100, 0.0100, 0.0100, 0.0100, 0.0100, 0.0100, 0.0100, 0.0100, 0.0100, 0.0100, 0.0100, 0.0100, 0.0100, 0.0100, 0.0100, 0.0100, 0.0100, 0.6600, 0.9788, 0.9788, 0.9771, 0.9767, 0.9771, 0.9775, 0.9771, 0.9771, 0.9771, 0.9771, 0.9771, 0.9775, 0.9775, 0.9779, 0.9775, 0.9779, 0.9775, 0.9771, 0.9771, 0.9767, 0.9771, 0.9771, 0.9779, 0.9775, 0.9775, 0.9771, 0.9775, 0.9779, 0.9779, 0.9775, 0.9771, 0.9779, 0.9775, 0.9779, 0.9779, 0.9771]
