// ============================================================================
// UJPS THERMAL GENERATOR SHAPE - Real Data for 2025-07-02
// Derived from CEB F05 metering data (net export = UJPS generation)
// Shared by all 3 UJPS generators (8 MW each)
// ============================================================================

New Loadshape.UJPS_20250702
~   npts=96  interval=0.25
~   mult=[0.9771, 0.9775, 0.9783, 0.9783, 0.9783, 0.0775, 0.0100, 0.0100, 0.0100, 0.0100, 0.0100, 0.0100, 0.0100, 0.0100, 0.0100, 0.0100, 0.0100, 0.0100, 0.0100, 0.0100, 0.0100, 0.0100, 0.0100, 0.0100, 0.0100, 0.0100, 0.0100, 0.0100, 0.0100, 0.0100, 0.0100, 0.0100, 0.0100, 0.0100, 0.0100, 0.0100, 0.0100, 0.0100, 0.0100, 0.0100, 0.0100, 0.0100, 0.0100, 0.0100, 0.0100, 0.0100, 0.0100, 0.0100, 0.0100, 0.0100, 0.0100, 0.0100, 0.0100, 0.0100, 0.0100, 0.0100, 0.0100, 0.0100, 0.1383, 0.6142, 0.9758, 0.9738, 0.9750, 0.9746, 0.9750, 0.9746, 0.9746, 0.9762, 0.9775, 0.9775, 0.9783, 0.9779, 0.9783, 0.9775, 0.9779, 0.9788, 0.9779, 0.9779, 0.9775, 0.9779, 0.9779, 0.9779, 0.9775, 0.9771, 0.9775, 0.9783, 0.9779, 0.9779, 0.9779, 0.9775, 0.9779, 0.9779, 0.9779, 0.9771, 0.9771, 0.9775]
