// ============================================================================
// UJPS THERMAL GENERATOR SHAPE - Real Data for 2025-06-16
// Derived from CEB F05 metering data (net export = UJPS generation)
// Shared by all 3 UJPS generators (8 MW each)
// ============================================================================

New Loadshape.UJPS_20250616
~   npts=96  interval=0.25
~   mult=[0.0100, 0.0100, 0.0100, 0.0100, 0.0100, 0.0100, 0.0100, 0.0100, 0.0100, 0.0100, 0.0100, 0.0100, 0.0100, 0.0100, 0.0100, 0.0100, 0.0100, 0.0100, 0.0100, 0.0100, 0.0100, 0.0100, 0.0100, 0.0100, 0.0100, 0.0100, 0.0100, 0.0100, 0.0100, 0.0100, 0.0100, 0.0100, 0.0100, 0.0100, 0.0100, 0.0100, 0.0100, 0.0100, 0.0100, 0.0100, 0.0100, 0.0100, 0.0100, 0.0100, 0.0100, 0.0100, 0.0100, 0.0100, 0.0100, 0.0100, 0.0100, 0.0100, 0.0100, 0.0100, 0.0100, 0.0100, 0.0100, 0.0100, 0.0100, 0.0100, 0.0100, 0.0100, 0.0100, 0.2771, 0.9238, 0.9762, 0.9767, 0.9762, 0.9767, 0.9771, 0.9767, 0.9771, 0.9775, 0.9767, 0.9775, 0.9767, 0.9775, 0.9767, 0.9767, 0.9771, 0.9771, 0.9767, 0.9775, 0.9771, 0.9767, 0.9771, 0.9767, 0.9767, 0.7725, 0.0100, 0.0100, 0.0100, 0.0100, 0.0100, 0.0100, 0.0100]
