// ============================================================================
// UJPS THERMAL GENERATOR SHAPE - Real Data for 2025-08-31
// Derived from CEB F05 metering data (net export = UJPS generation)
// Shared by all 3 UJPS generators (8 MW each)
// ============================================================================

New Loadshape.UJPS_20250831
~   npts=96  interval=0.25
~   mult=[0.9771, 0.9771, 0.9775, 0.9771, 0.9775, 0.9775, 0.9775, 0.9775, 0.9779, 0.9779, 0.9775, 0.9775, 0.9779, 0.9779, 0.9775, 0.9775, 0.9775, 0.9775, 0.9775, 0.9775, 0.9775, 0.9775, 0.9775, 0.9775, 0.9779, 0.9779, 0.9783, 0.9779, 0.9783, 0.9788, 0.9779, 0.6512, 0.0100, 0.0100, 0.0100, 0.0100, 0.0100, 0.0100, 0.0100, 0.0100, 0.0100, 0.0100, 0.0100, 0.0100, 0.0100, 0.0100, 0.0100, 0.0100, 0.0100, 0.0100, 0.0100, 0.0100, 0.0100, 0.0100, 0.0100, 0.0100, 0.0100, 0.0100, 0.0100, 0.0100, 0.0100, 0.0100, 0.2354, 0.6396, 0.8438, 0.9771, 0.9767, 0.9767, 0.9767, 0.9767, 0.9771, 0.9767, 0.9767, 0.9771, 0.9771, 0.9767, 0.9767, 0.9771, 0.9775, 0.9767, 0.9771, 0.9771, 0.9767, 0.9767, 0.9767, 0.9767, 0.9767, 0.9767, 0.9771, 0.9767, 0.9767, 0.9771, 0.9771, 0.9771, 0.9767, 0.9771]
