// ============================================================================
// UJPS THERMAL GENERATOR SHAPE - Real Data for 2025-08-13
// Derived from CEB F05 metering data (net export = UJPS generation)
// Shared by all 3 UJPS generators (8 MW each)
// ============================================================================

New Loadshape.UJPS_20250813
~   npts=96  interval=0.25
~   mult=[0.0100, 0.0100, 0.0100, 0.0100, 0.0100, 0.0100, 0.0100, 0.0100, 0.0100, 0.0100, 0.0100, 0.0100, 0.0100, 0.0100, 0.0100, 0.0100, 0.0100, 0.0100, 0.0100, 0.0100, 0.0100, 0.4450, 0.8829, 0.9771, 0.9775, 0.9779, 0.9779, 0.9783, 0.9779, 0.9779, 0.9775, 0.9779, 0.9783, 0.9792, 0.9788, 0.9792, 0.9792, 0.9792, 0.2204, 0.0100, 0.0100, 0.0100, 0.0100, 0.0100, 0.0100, 0.0100, 0.0100, 0.0100, 0.0100, 0.0100, 0.0100, 0.0100, 0.0100, 0.0100, 0.0100, 0.0100, 0.0100, 0.0100, 0.0100, 0.0100, 0.0100, 0.0100, 0.0100, 0.1133, 0.8612, 0.9771, 0.9767, 0.9767, 0.9771, 0.9775, 0.9771, 0.9775, 0.9775, 0.9775, 0.9775, 0.9775, 0.9771, 0.9771, 0.9771, 0.9779, 0.9775, 0.9771, 0.9775, 0.9775, 0.9779, 0.9775, 0.9779, 0.9775, 0.9775, 0.9775, 0.9775, 0.9775, 0.9779, 0.9775, 0.9312, 0.0100]
