// ============================================================================
// UJPS THERMAL GENERATOR SHAPE - Real Data for 2025-05-15
// Derived from CEB F05 metering data (net export = UJPS generation)
// Shared by all 3 UJPS generators (8 MW each)
// ============================================================================

New Loadshape.UJPS_20250515
~   npts=96  interval=0.25
~   mult=[0.9767, 0.9775, 0.9779, 0.9779, 0.9771, 0.9775, 0.9779, 0.9779, 0.9779, 0.9767, 0.8333, 0.4758, 0.4812, 0.4812, 0.4812, 0.4808, 0.4812, 0.4817, 0.4817, 0.4808, 0.4008, 0.3183, 0.6079, 0.6512, 0.6512, 0.6512, 0.6517, 0.6517, 0.6517, 0.3796, 0.1829, 0.0100, 0.0100, 0.0100, 0.0100, 0.0100, 0.0100, 0.0100, 0.0100, 0.0100, 0.0100, 0.0100, 0.0100, 0.0100, 0.0100, 0.0100, 0.0100, 0.0100, 0.0100, 0.0100, 0.0100, 0.0100, 0.0100, 0.0100, 0.0100, 0.0100, 0.0100, 0.0100, 0.0100, 0.4504, 0.6508, 0.6546, 0.6562, 0.6562, 0.6558, 0.6562, 0.6554, 0.8425, 0.9838, 0.9842, 0.9838, 0.9821, 0.9821, 0.9821, 0.9825, 0.9825, 0.9817, 0.9821, 0.9825, 0.9825, 0.9825, 0.9825, 0.9821, 0.9825, 0.9825, 0.9829, 0.2388, 0.0100, 0.0100, 0.0100, 0.0100, 0.0100, 0.0100, 0.0100, 0.0100, 0.0100]
