// ============================================================================
// UJPS THERMAL GENERATOR SHAPE - Real Data for 2025-06-24
// Derived from CEB F05 metering data (net export = UJPS generation)
// Shared by all 3 UJPS generators (8 MW each)
// ============================================================================

New Loadshape.UJPS_20250624
~   npts=96  interval=0.25
~   mult=[0.0100, 0.0100, 0.0100, 0.0100, 0.0100, 0.0100, 0.0100, 0.0100, 0.0100, 0.0100, 0.0100, 0.0100, 0.0100, 0.0100, 0.0100, 0.0100, 0.0100, 0.0100, 0.0100, 0.0100, 0.0100, 0.0100, 0.5158, 0.9771, 0.9771, 0.9775, 0.9742, 0.8292, 0.0100, 0.0100, 0.0100, 0.0100, 0.0100, 0.0100, 0.0100, 0.0100, 0.0100, 0.0100, 0.0100, 0.0100, 0.0100, 0.0100, 0.0100, 0.0100, 0.0100, 0.0100, 0.0100, 0.0100, 0.0100, 0.0100, 0.0100, 0.0100, 0.0100, 0.0100, 0.0100, 0.0100, 0.0100, 0.0100, 0.0100, 0.0100, 0.0100, 0.0100, 0.0100, 0.0100, 0.0458, 0.8146, 0.9775, 0.9775, 0.9771, 0.9767, 0.9771, 0.9775, 0.9779, 0.9775, 0.9775, 0.9779, 0.9775, 0.9775, 0.9771, 0.9771, 0.9767, 0.9775, 0.9775, 0.9771, 0.9775, 0.9771, 0.9771, 0.9771, 0.9771, 0.9775, 0.9771, 0.9771, 0.9771, 0.9771, 0.9771, 0.9771]
