// ============================================================================
// WIND POWER SHAPE - Real NASA Data for 2025-06-18
// Location: Jaffna, Sri Lanka (9.7423N, 80.0352E)
// Source: NASA/POWER MERRA-2 WS50M, converted via turbine power curve
// ============================================================================

New Loadshape.Wind_20250618
~   npts=96  interval=0.25
~   mult=[0.2224, 0.2166, 0.2110, 0.2054, 0.1999, 0.1901, 0.1806, 0.1715, 0.1627, 0.1544, 0.1464, 0.1387, 0.1313, 0.1237, 0.1164, 0.1094, 0.1027, 0.0971, 0.0918, 0.0867, 0.0818, 0.0811, 0.0805, 0.0798, 0.0792, 0.0800, 0.0808, 0.0816, 0.0825, 0.0808, 0.0792, 0.0776, 0.0760, 0.0802, 0.0845, 0.0890, 0.0936, 0.1011, 0.1090, 0.1172, 0.1259, 0.1338, 0.1420, 0.1506, 0.1595, 0.1710, 0.1829, 0.1954, 0.2085, 0.2170, 0.2257, 0.2346, 0.2438, 0.2476, 0.2515, 0.2553, 0.2593, 0.2661, 0.2731, 0.2803, 0.2875, 0.3079, 0.3293, 0.3517, 0.3751, 0.3843, 0.3937, 0.4033, 0.4130, 0.4214, 0.4299, 0.4385, 0.4472, 0.4581, 0.4692, 0.4805, 0.4919, 0.4980, 0.5041, 0.5103, 0.5165, 0.5262, 0.5361, 0.5460, 0.5561, 0.5579, 0.5597, 0.5615, 0.5633, 0.5597, 0.5561, 0.5526, 0.5490, 0.5355, 0.5222, 0.5092]
