// ============================================================================
// WIND POWER SHAPE - Real NASA Data for 2025-07-04
// Location: Jaffna, Sri Lanka (9.7423N, 80.0352E)
// Source: NASA/POWER MERRA-2 WS50M, converted via turbine power curve
// ============================================================================

New Loadshape.Wind_20250704
~   npts=96  interval=0.25
~   mult=[0.0585, 0.0607, 0.0629, 0.0651, 0.0674, 0.0643, 0.0612, 0.0583, 0.0554, 0.0521, 0.0490, 0.0460, 0.0431, 0.0405, 0.0381, 0.0357, 0.0335, 0.0331, 0.0328, 0.0324, 0.0321, 0.0307, 0.0295, 0.0282, 0.0270, 0.0275, 0.0280, 0.0285, 0.0290, 0.0322, 0.0357, 0.0395, 0.0435, 0.0505, 0.0583, 0.0667, 0.0760, 0.0843, 0.0933, 0.1029, 0.1130, 0.1147, 0.1164, 0.1181, 0.1198, 0.1135, 0.1074, 0.1015, 0.0958, 0.0883, 0.0811, 0.0744, 0.0680, 0.0618, 0.0559, 0.0504, 0.0453, 0.0407, 0.0365, 0.0326, 0.0290, 0.0264, 0.0241, 0.0219, 0.0198, 0.0205, 0.0211, 0.0218, 0.0225, 0.0274, 0.0329, 0.0392, 0.0462, 0.0515, 0.0572, 0.0633, 0.0698, 0.0725, 0.0753, 0.0782, 0.0811, 0.0787, 0.0763, 0.0739, 0.0716, 0.0721, 0.0725, 0.0730, 0.0735, 0.0772, 0.0811, 0.0852, 0.0893, 0.0913, 0.0933, 0.0953]
