// ============================================================================
// WIND POWER SHAPE - Real NASA Data for 2025-07-25
// Location: Jaffna, Sri Lanka (9.7423N, 80.0352E)
// Source: NASA/POWER MERRA-2 WS50M, converted via turbine power curve
// ============================================================================

New Loadshape.Wind_20250725
~   npts=96  interval=0.25
~   mult=[0.9548, 0.9565, 0.9582, 0.9600, 0.9617, 0.9446, 0.9277, 0.9110, 0.8945, 0.8662, 0.8384, 0.8112, 0.7847, 0.7507, 0.7176, 0.6856, 0.6545, 0.6492, 0.6439, 0.6387, 0.6334, 0.6406, 0.6479, 0.6552, 0.6625, 0.6828, 0.7036, 0.7247, 0.7463, 0.7742, 0.8028, 0.8321, 0.8622, 0.8888, 0.9160, 0.9437, 0.9720, 0.9755, 0.9790, 0.9825, 0.9859, 0.9798, 0.9738, 0.9677, 0.9617, 0.9540, 0.9463, 0.9387, 0.9311, 0.9429, 0.9548, 0.9668, 0.9790, 1.0000, 1.0000, 1.0000, 1.0000, 1.0000, 1.0000, 1.0000, 1.0000, 1.0000, 1.0000, 1.0000, 1.0000, 1.0000, 1.0000, 1.0000, 1.0000, 1.0000, 1.0000, 1.0000, 1.0000, 1.0000, 1.0000, 1.0000, 1.0000, 1.0000, 1.0000, 1.0000, 1.0000, 1.0000, 1.0000, 1.0000, 1.0000, 1.0000, 1.0000, 1.0000, 1.0000, 1.0000, 1.0000, 1.0000, 1.0000, 1.0000, 1.0000, 1.0000]
