// ============================================================================
// WIND POWER SHAPE - Real NASA Data for 2025-08-28
// Location: Jaffna, Sri Lanka (9.7423N, 80.0352E)
// Source: NASA/POWER MERRA-2 WS50M, converted via turbine power curve
// ============================================================================

New Loadshape.Wind_20250828
~   npts=96  interval=0.25
~   mult=[1.0000, 1.0000, 1.0000, 1.0000, 1.0000, 1.0000, 1.0000, 1.0000, 1.0000, 1.0000, 1.0000, 1.0000, 1.0000, 0.9825, 0.9412, 0.9011, 0.8622, 0.8306, 0.7998, 0.7698, 0.7405, 0.7290, 0.7176, 0.7064, 0.6952, 0.6952, 0.6952, 0.6952, 0.6952, 0.7036, 0.7120, 0.7205, 0.7290, 0.7405, 0.7521, 0.7638, 0.7757, 0.7817, 0.7877, 0.7937, 0.7998, 0.8059, 0.8120, 0.8182, 0.8244, 0.8314, 0.8384, 0.8455, 0.8526, 0.8479, 0.8431, 0.8384, 0.8337, 0.8021, 0.7712, 0.7412, 0.7120, 0.6760, 0.6413, 0.6078, 0.5754, 0.5396, 0.5053, 0.4724, 0.4410, 0.4110, 0.3825, 0.3552, 0.3293, 0.3157, 0.3024, 0.2894, 0.2769, 0.2848, 0.2929, 0.3012, 0.3096, 0.3256, 0.3421, 0.3592, 0.3769, 0.3980, 0.4199, 0.4426, 0.4660, 0.4783, 0.4908, 0.5036, 0.5165, 0.5211, 0.5257, 0.5303, 0.5349, 0.5373, 0.5396, 0.5419]
