// ============================================================================
// WIND POWER SHAPE - Real NASA Data for 2025-06-28
// Location: Jaffna, Sri Lanka (9.7423N, 80.0352E)
// Source: NASA/POWER MERRA-2 WS50M, converted via turbine power curve
// ============================================================================

New Loadshape.Wind_20250628
~   npts=96  interval=0.25
~   mult=[0.1027, 0.0962, 0.0901, 0.0842, 0.0785, 0.0746, 0.0707, 0.0670, 0.0634, 0.0583, 0.0534, 0.0487, 0.0444, 0.0405, 0.0369, 0.0335, 0.0303, 0.0287, 0.0272, 0.0257, 0.0242, 0.0229, 0.0215, 0.0203, 0.0190, 0.0204, 0.0218, 0.0233, 0.0248, 0.0274, 0.0301, 0.0330, 0.0361, 0.0395, 0.0431, 0.0469, 0.0509, 0.0541, 0.0575, 0.0609, 0.0646, 0.0667, 0.0689, 0.0712, 0.0735, 0.0727, 0.0719, 0.0712, 0.0704, 0.0667, 0.0632, 0.0597, 0.0564, 0.0504, 0.0449, 0.0397, 0.0350, 0.0300, 0.0256, 0.0216, 0.0181, 0.0165, 0.0150, 0.0136, 0.0123, 0.0138, 0.0154, 0.0172, 0.0190, 0.0235, 0.0286, 0.0344, 0.0410, 0.0470, 0.0536, 0.0608, 0.0686, 0.0721, 0.0757, 0.0793, 0.0832, 0.0859, 0.0886, 0.0915, 0.0944, 0.0992, 0.1042, 0.1094, 0.1147, 0.1257, 0.1373, 0.1496, 0.1627, 0.1826, 0.2042, 0.2273]
