// ============================================================================
// WIND POWER SHAPE - Real NASA Data for 2025-08-27
// Location: Jaffna, Sri Lanka (9.7423N, 80.0352E)
// Source: NASA/POWER MERRA-2 WS50M, converted via turbine power curve
// ============================================================================

New Loadshape.Wind_20250827
~   npts=96  interval=0.25
~   mult=[0.8306, 0.8197, 0.8089, 0.7983, 0.7877, 0.7507, 0.7148, 0.6801, 0.6466, 0.6154, 0.5853, 0.5561, 0.5280, 0.5041, 0.4810, 0.4586, 0.4369, 0.4120, 0.3881, 0.3651, 0.3430, 0.3277, 0.3128, 0.2984, 0.2844, 0.2743, 0.2643, 0.2546, 0.2452, 0.2373, 0.2296, 0.2221, 0.2147, 0.2075, 0.2005, 0.1936, 0.1869, 0.1878, 0.1887, 0.1895, 0.1904, 0.1969, 0.2035, 0.2103, 0.2173, 0.2290, 0.2411, 0.2536, 0.2665, 0.2821, 0.2984, 0.3152, 0.3327, 0.3539, 0.3760, 0.3990, 0.4229, 0.4565, 0.4919, 0.5291, 0.5681, 0.6116, 0.6572, 0.7050, 0.7550, 0.7847, 0.8151, 0.8463, 0.8782, 0.8904, 0.9027, 0.9152, 0.9277, 0.9557, 0.9842, 1.0000, 1.0000, 1.0000, 1.0000, 1.0000, 1.0000, 1.0000, 1.0000, 1.0000, 1.0000, 1.0000, 1.0000, 1.0000, 1.0000, 1.0000, 1.0000, 1.0000, 1.0000, 1.0000, 1.0000, 1.0000]
