// ============================================================================
// WIND POWER SHAPE - Real NASA Data for 2025-05-06
// Location: Jaffna, Sri Lanka (9.7423N, 80.0352E)
// Source: NASA/POWER MERRA-2 WS50M, converted via turbine power curve
// ============================================================================

New Loadshape.Wind_20250506
~   npts=96  interval=0.25
~   mult=[0.0047, 0.0050, 0.0054, 0.0058, 0.0062, 0.0057, 0.0052, 0.0047, 0.0043, 0.0034, 0.0027, 0.0021, 0.0016, 0.0011, 0.0008, 0.0005, 0.0003, 0.0002, 0.0001, 0.0000, 0.0000, 0.0000, 0.0000, 0.0000, 0.0000, 0.0000, 0.0000, 0.0000, 0.0000, 0.0000, 0.0000, 0.0000, 0.0000, 0.0000, 0.0000, 0.0000, 0.0000, 0.0000, 0.0000, 0.0000, 0.0000, 0.0000, 0.0000, 0.0000, 0.0000, 0.0000, 0.0000, 0.0000, 0.0000, 0.0000, 0.0001, 0.0001, 0.0002, 0.0003, 0.0005, 0.0008, 0.0011, 0.0018, 0.0028, 0.0040, 0.0056, 0.0081, 0.0113, 0.0151, 0.0198, 0.0266, 0.0348, 0.0445, 0.0559, 0.0698, 0.0859, 0.1042, 0.1250, 0.1481, 0.1740, 0.2026, 0.2343, 0.2497, 0.2658, 0.2825, 0.3000, 0.3157, 0.3319, 0.3487, 0.3660, 0.3651, 0.3642, 0.3633, 0.3624, 0.3592, 0.3561, 0.3530, 0.3500, 0.3517, 0.3535, 0.3552]
