// ============================================================================
// WIND POWER SHAPE - Real NASA Data for 2025-07-26
// Location: Jaffna, Sri Lanka (9.7423N, 80.0352E)
// Source: NASA/POWER MERRA-2 WS50M, converted via turbine power curve
// ============================================================================

New Loadshape.Wind_20250726
~   npts=96  interval=0.25
~   mult=[1.0000, 1.0000, 1.0000, 1.0000, 1.0000, 1.0000, 1.0000, 1.0000, 1.0000, 1.0000, 1.0000, 1.0000, 1.0000, 1.0000, 1.0000, 1.0000, 1.0000, 0.9565, 0.9077, 0.8606, 0.8151, 0.7960, 0.7772, 0.7587, 0.7405, 0.7609, 0.7817, 0.8028, 0.8244, 0.8526, 0.8815, 0.9110, 0.9412, 0.9677, 0.9947, 1.0000, 1.0000, 1.0000, 1.0000, 1.0000, 1.0000, 1.0000, 1.0000, 1.0000, 1.0000, 1.0000, 0.9930, 0.9772, 0.9617, 0.9344, 0.9077, 0.8815, 0.8558, 0.8259, 0.7967, 0.7683, 0.7405, 0.7283, 0.7162, 0.7043, 0.6925, 0.7043, 0.7162, 0.7283, 0.7405, 0.7565, 0.7727, 0.7892, 0.8059, 0.8097, 0.8135, 0.8174, 0.8213, 0.8143, 0.8074, 0.8005, 0.7937, 0.7839, 0.7742, 0.7646, 0.7550, 0.7558, 0.7565, 0.7572, 0.7580, 0.7543, 0.7507, 0.7470, 0.7434, 0.7319, 0.7205, 0.7092, 0.6980, 0.6747, 0.6518, 0.6296]
