// ============================================================================
// WIND POWER SHAPE - Real NASA Data for 2025-05-10
// Location: Jaffna, Sri Lanka (9.7423N, 80.0352E)
// Source: NASA/POWER MERRA-2 WS50M, converted via turbine power curve
// ============================================================================

New Loadshape.Wind_20250510
~   npts=96  interval=0.25
~   mult=[0.0041, 0.0049, 0.0059, 0.0070, 0.0081, 0.0086, 0.0090, 0.0095, 0.0100, 0.0097, 0.0093, 0.0090, 0.0087, 0.0084, 0.0081, 0.0078, 0.0074, 0.0069, 0.0063, 0.0058, 0.0053, 0.0043, 0.0035, 0.0028, 0.0022, 0.0016, 0.0011, 0.0008, 0.0005, 0.0004, 0.0003, 0.0002, 0.0002, 0.0001, 0.0001, 0.0001, 0.0000, 0.0000, 0.0000, 0.0000, 0.0000, 0.0000, 0.0000, 0.0000, 0.0000, 0.0000, 0.0000, 0.0000, 0.0001, 0.0001, 0.0001, 0.0001, 0.0000, 0.0000, 0.0000, 0.0000, 0.0000, 0.0000, 0.0000, 0.0000, 0.0000, 0.0000, 0.0000, 0.0000, 0.0000, 0.0000, 0.0000, 0.0000, 0.0000, 0.0000, 0.0000, 0.0000, 0.0000, 0.0000, 0.0000, 0.0000, 0.0000, 0.0000, 0.0001, 0.0003, 0.0008, 0.0018, 0.0035, 0.0059, 0.0092, 0.0131, 0.0179, 0.0239, 0.0310, 0.0376, 0.0451, 0.0535, 0.0629, 0.0704, 0.0785, 0.0873]
