// ============================================================================
// WIND POWER SHAPE - Real NASA Data for 2025-08-22
// Location: Jaffna, Sri Lanka (9.7423N, 80.0352E)
// Source: NASA/POWER MERRA-2 WS50M, converted via turbine power curve
// ============================================================================

New Loadshape.Wind_20250822
~   npts=96  interval=0.25
~   mult=[0.0211, 0.0206, 0.0201, 0.0196, 0.0190, 0.0193, 0.0196, 0.0198, 0.0201, 0.0201, 0.0201, 0.0201, 0.0201, 0.0200, 0.0199, 0.0199, 0.0198, 0.0195, 0.0192, 0.0189, 0.0185, 0.0183, 0.0181, 0.0178, 0.0176, 0.0187, 0.0198, 0.0210, 0.0222, 0.0242, 0.0264, 0.0286, 0.0310, 0.0314, 0.0319, 0.0323, 0.0328, 0.0298, 0.0270, 0.0244, 0.0220, 0.0185, 0.0154, 0.0127, 0.0103, 0.0082, 0.0065, 0.0050, 0.0037, 0.0028, 0.0020, 0.0014, 0.0009, 0.0006, 0.0003, 0.0002, 0.0001, 0.0000, 0.0000, 0.0000, 0.0000, 0.0000, 0.0000, 0.0000, 0.0000, 0.0000, 0.0000, 0.0000, 0.0000, 0.0000, 0.0000, 0.0000, 0.0000, 0.0000, 0.0000, 0.0000, 0.0001, 0.0003, 0.0008, 0.0017, 0.0030, 0.0044, 0.0061, 0.0081, 0.0106, 0.0118, 0.0131, 0.0145, 0.0160, 0.0187, 0.0217, 0.0250, 0.0286, 0.0335, 0.0389, 0.0449]
