// ============================================================================
// WIND POWER SHAPE - Real NASA Data for 2025-08-18
// Location: Jaffna, Sri Lanka (9.7423N, 80.0352E)
// Source: NASA/POWER MERRA-2 WS50M, converted via turbine power curve
// ============================================================================

New Loadshape.Wind_20250818
~   npts=96  interval=0.25
~   mult=[0.5143, 0.5234, 0.5326, 0.5419, 0.5514, 0.5639, 0.5767, 0.5896, 0.6027, 0.6109, 0.6192, 0.6276, 0.6361, 0.6374, 0.6387, 0.6400, 0.6413, 0.6341, 0.6270, 0.6199, 0.6129, 0.6008, 0.5890, 0.5773, 0.5657, 0.5675, 0.5694, 0.5712, 0.5730, 0.5706, 0.5681, 0.5657, 0.5633, 0.5567, 0.5502, 0.5437, 0.5373, 0.5472, 0.5573, 0.5675, 0.5779, 0.5853, 0.5927, 0.6002, 0.6078, 0.6027, 0.5977, 0.5927, 0.5877, 0.5884, 0.5890, 0.5896, 0.5902, 0.6021, 0.6141, 0.6263, 0.6387, 0.6532, 0.6679, 0.6828, 0.6980, 0.6952, 0.6925, 0.6897, 0.6870, 0.6439, 0.6027, 0.5633, 0.5257, 0.5019, 0.4789, 0.4565, 0.4349, 0.4184, 0.4023, 0.3867, 0.3714, 0.3539, 0.3370, 0.3206, 0.3047, 0.3067, 0.3088, 0.3108, 0.3128, 0.3336, 0.3552, 0.3778, 0.4014, 0.4214, 0.4420, 0.4634, 0.4854, 0.4783, 0.4713, 0.4644]
