// ============================================================================
// WIND POWER SHAPE - Real NASA Data for 2025-06-07
// Location: Jaffna, Sri Lanka (9.7423N, 80.0352E)
// Source: NASA/POWER MERRA-2 WS50M, converted via turbine power curve
// ============================================================================

New Loadshape.Wind_20250607
~   npts=96  interval=0.25
~   mult=[0.1812, 0.1889, 0.1969, 0.2051, 0.2135, 0.2147, 0.2160, 0.2173, 0.2186, 0.2144, 0.2103, 0.2063, 0.2023, 0.2026, 0.2029, 0.2032, 0.2035, 0.2029, 0.2023, 0.2017, 0.2011, 0.1981, 0.1951, 0.1922, 0.1892, 0.1933, 0.1975, 0.2017, 0.2060, 0.2082, 0.2103, 0.2125, 0.2147, 0.2154, 0.2160, 0.2166, 0.2173, 0.2113, 0.2054, 0.1996, 0.1939, 0.1773, 0.1616, 0.1469, 0.1331, 0.1135, 0.0958, 0.0802, 0.0663, 0.0550, 0.0451, 0.0364, 0.0290, 0.0264, 0.0241, 0.0219, 0.0198, 0.0222, 0.0248, 0.0276, 0.0306, 0.0381, 0.0467, 0.0564, 0.0674, 0.0789, 0.0915, 0.1054, 0.1206, 0.1274, 0.1345, 0.1418, 0.1494, 0.1534, 0.1575, 0.1616, 0.1658, 0.1701, 0.1745, 0.1790, 0.1835, 0.1939, 0.2048, 0.2160, 0.2276, 0.2387, 0.2500, 0.2618, 0.2739, 0.2821, 0.2906, 0.2992, 0.3079, 0.3079, 0.3079, 0.3079]
