// ============================================================================
// WIND POWER SHAPE - Real NASA Data for 2025-08-29
// Location: Jaffna, Sri Lanka (9.7423N, 80.0352E)
// Source: NASA/POWER MERRA-2 WS50M, converted via turbine power curve
// ============================================================================

New Loadshape.Wind_20250829
~   npts=96  interval=0.25
~   mult=[0.5443, 0.5355, 0.5268, 0.5182, 0.5097, 0.5148, 0.5199, 0.5251, 0.5303, 0.5257, 0.5211, 0.5165, 0.5120, 0.4964, 0.4810, 0.4660, 0.4513, 0.4324, 0.4140, 0.3961, 0.3788, 0.3714, 0.3642, 0.3570, 0.3500, 0.3508, 0.3517, 0.3526, 0.3535, 0.3465, 0.3396, 0.3327, 0.3260, 0.3177, 0.3096, 0.3016, 0.2937, 0.2917, 0.2898, 0.2879, 0.2860, 0.2863, 0.2867, 0.2871, 0.2875, 0.2925, 0.2976, 0.3027, 0.3079, 0.3210, 0.3344, 0.3482, 0.3624, 0.3774, 0.3928, 0.4086, 0.4249, 0.4487, 0.4735, 0.4991, 0.5257, 0.5609, 0.5977, 0.6361, 0.6760, 0.7001, 0.7247, 0.7499, 0.7757, 0.7832, 0.7907, 0.7983, 0.8059, 0.8120, 0.8182, 0.8244, 0.8306, 0.8228, 0.8151, 0.8074, 0.7998, 0.8151, 0.8306, 0.8463, 0.8622, 0.8718, 0.8815, 0.8913, 0.9011, 0.8799, 0.8590, 0.8384, 0.8182, 0.7787, 0.7405, 0.7036]
