// ============================================================================
// WIND POWER SHAPE - Real NASA Data for 2025-06-30
// Location: Jaffna, Sri Lanka (9.7423N, 80.0352E)
// Source: NASA/POWER MERRA-2 WS50M, converted via turbine power curve
// ============================================================================

New Loadshape.Wind_20250630
~   npts=96  interval=0.25
~   mult=[0.2493, 0.2578, 0.2665, 0.2754, 0.2844, 0.2825, 0.2806, 0.2787, 0.2769, 0.2743, 0.2717, 0.2691, 0.2665, 0.2582, 0.2500, 0.2421, 0.2343, 0.2224, 0.2110, 0.1999, 0.1892, 0.1731, 0.1580, 0.1437, 0.1304, 0.1215, 0.1130, 0.1050, 0.0973, 0.0918, 0.0866, 0.0815, 0.0766, 0.0724, 0.0683, 0.0644, 0.0607, 0.0588, 0.0569, 0.0551, 0.0534, 0.0504, 0.0476, 0.0449, 0.0422, 0.0380, 0.0340, 0.0304, 0.0270, 0.0225, 0.0185, 0.0151, 0.0121, 0.0091, 0.0067, 0.0047, 0.0032, 0.0028, 0.0025, 0.0023, 0.0020, 0.0031, 0.0045, 0.0063, 0.0086, 0.0118, 0.0157, 0.0205, 0.0261, 0.0327, 0.0403, 0.0491, 0.0591, 0.0700, 0.0821, 0.0957, 0.1106, 0.1254, 0.1416, 0.1590, 0.1778, 0.1936, 0.2103, 0.2280, 0.2466, 0.2582, 0.2702, 0.2825, 0.2953, 0.3104, 0.3260, 0.3421, 0.3588, 0.3664, 0.3742, 0.3820]
