// ============================================================================
// WIND POWER SHAPE - Real NASA Data for 2025-08-23
// Location: Jaffna, Sri Lanka (9.7423N, 80.0352E)
// Source: NASA/POWER MERRA-2 WS50M, converted via turbine power curve
// ============================================================================

New Loadshape.Wind_20250823
~   npts=96  interval=0.25
~   mult=[0.0514, 0.0542, 0.0572, 0.0603, 0.0634, 0.0607, 0.0580, 0.0554, 0.0529, 0.0483, 0.0440, 0.0399, 0.0361, 0.0330, 0.0301, 0.0274, 0.0248, 0.0217, 0.0188, 0.0162, 0.0138, 0.0107, 0.0081, 0.0059, 0.0042, 0.0031, 0.0022, 0.0015, 0.0009, 0.0007, 0.0006, 0.0004, 0.0003, 0.0002, 0.0001, 0.0001, 0.0001, 0.0000, 0.0000, 0.0000, 0.0000, 0.0000, 0.0001, 0.0001, 0.0001, 0.0002, 0.0004, 0.0007, 0.0011, 0.0016, 0.0023, 0.0030, 0.0040, 0.0049, 0.0060, 0.0072, 0.0086, 0.0095, 0.0106, 0.0117, 0.0128, 0.0137, 0.0147, 0.0156, 0.0166, 0.0158, 0.0150, 0.0142, 0.0134, 0.0118, 0.0102, 0.0088, 0.0076, 0.0066, 0.0057, 0.0048, 0.0041, 0.0030, 0.0022, 0.0015, 0.0010, 0.0005, 0.0002, 0.0001, 0.0000, 0.0000, 0.0000, 0.0000, 0.0000, 0.0001, 0.0004, 0.0008, 0.0015, 0.0028, 0.0047, 0.0072]
