// ============================================================================
// WIND POWER SHAPE - Real NASA Data for 2025-06-23
// Location: Jaffna, Sri Lanka (9.7423N, 80.0352E)
// Source: NASA/POWER MERRA-2 WS50M, converted via turbine power curve
// ============================================================================

New Loadshape.Wind_20250623
~   npts=96  interval=0.25
~   mult=[0.1963, 0.1832, 0.1707, 0.1588, 0.1474, 0.1494, 0.1514, 0.1534, 0.1554, 0.1656, 0.1762, 0.1872, 0.1987, 0.2082, 0.2179, 0.2280, 0.2383, 0.2404, 0.2424, 0.2445, 0.2466, 0.2536, 0.2607, 0.2680, 0.2754, 0.2956, 0.3169, 0.3391, 0.3624, 0.3942, 0.4279, 0.4634, 0.5008, 0.5217, 0.5431, 0.5651, 0.5877, 0.6059, 0.6244, 0.6433, 0.6625, 0.6740, 0.6856, 0.6973, 0.7092, 0.7148, 0.7205, 0.7261, 0.7319, 0.7456, 0.7594, 0.7735, 0.7877, 0.8051, 0.8228, 0.8408, 0.8590, 0.8550, 0.8510, 0.8471, 0.8431, 0.8298, 0.8166, 0.8036, 0.7907, 0.7824, 0.7742, 0.7661, 0.7580, 0.7233, 0.6897, 0.6572, 0.6257, 0.5896, 0.5549, 0.5217, 0.4897, 0.4697, 0.4503, 0.4314, 0.4130, 0.3947, 0.3769, 0.3597, 0.3430, 0.3260, 0.3096, 0.2937, 0.2784, 0.2724, 0.2665, 0.2607, 0.2550, 0.2568, 0.2585, 0.2603]
