// ============================================================================
// WIND POWER SHAPE - Real NASA Data for 2025-07-10
// Location: Jaffna, Sri Lanka (9.7423N, 80.0352E)
// Source: NASA/POWER MERRA-2 WS50M, converted via turbine power curve
// ============================================================================

New Loadshape.Wind_20250710
~   npts=96  interval=0.25
~   mult=[0.0389, 0.0385, 0.0381, 0.0377, 0.0373, 0.0382, 0.0391, 0.0400, 0.0410, 0.0434, 0.0460, 0.0486, 0.0514, 0.0531, 0.0549, 0.0567, 0.0585, 0.0537, 0.0492, 0.0450, 0.0410, 0.0342, 0.0283, 0.0231, 0.0185, 0.0167, 0.0150, 0.0134, 0.0119, 0.0108, 0.0098, 0.0089, 0.0080, 0.0073, 0.0067, 0.0061, 0.0055, 0.0050, 0.0045, 0.0040, 0.0036, 0.0027, 0.0020, 0.0015, 0.0010, 0.0006, 0.0003, 0.0001, 0.0000, 0.0000, 0.0000, 0.0000, 0.0000, 0.0000, 0.0000, 0.0000, 0.0000, 0.0001, 0.0001, 0.0003, 0.0006, 0.0013, 0.0025, 0.0041, 0.0064, 0.0098, 0.0141, 0.0196, 0.0264, 0.0325, 0.0395, 0.0475, 0.0564, 0.0611, 0.0660, 0.0712, 0.0766, 0.0793, 0.0821, 0.0850, 0.0879, 0.0915, 0.0951, 0.0988, 0.1027, 0.1070, 0.1114, 0.1160, 0.1206, 0.1230, 0.1254, 0.1279, 0.1304, 0.1281, 0.1259, 0.1237]
