// ============================================================================
// WIND POWER SHAPE - Real NASA Data for 2025-07-01
// Location: Jaffna, Sri Lanka (9.7423N, 80.0352E)
// Source: NASA/POWER MERRA-2 WS50M, converted via turbine power curve
// ============================================================================

New Loadshape.Wind_20250701
~   npts=96  interval=0.25
~   mult=[0.3900, 0.3788, 0.3678, 0.3570, 0.3465, 0.3243, 0.3031, 0.2829, 0.2636, 0.2480, 0.2329, 0.2186, 0.2048, 0.1963, 0.1881, 0.1801, 0.1723, 0.1648, 0.1575, 0.1504, 0.1435, 0.1340, 0.1250, 0.1164, 0.1082, 0.1062, 0.1042, 0.1023, 0.1004, 0.1004, 0.1004, 0.1004, 0.1004, 0.1007, 0.1011, 0.1015, 0.1019, 0.1068, 0.1118, 0.1170, 0.1224, 0.1320, 0.1420, 0.1526, 0.1637, 0.1637, 0.1637, 0.1637, 0.1637, 0.1521, 0.1411, 0.1306, 0.1206, 0.1098, 0.0996, 0.0901, 0.0811, 0.0724, 0.0643, 0.0568, 0.0499, 0.0416, 0.0342, 0.0278, 0.0222, 0.0179, 0.0141, 0.0109, 0.0083, 0.0091, 0.0101, 0.0110, 0.0121, 0.0139, 0.0158, 0.0180, 0.0203, 0.0234, 0.0267, 0.0303, 0.0342, 0.0368, 0.0395, 0.0423, 0.0453, 0.0482, 0.0511, 0.0542, 0.0575, 0.0644, 0.0719, 0.0800, 0.0886, 0.0968, 0.1054, 0.1145]
