// ============================================================================
// WIND POWER SHAPE - Real NASA Data for 2025-07-30
// Location: Jaffna, Sri Lanka (9.7423N, 80.0352E)
// Source: NASA/POWER MERRA-2 WS50M, converted via turbine power curve
// ============================================================================

New Loadshape.Wind_20250730
~   npts=96  interval=0.25
~   mult=[0.3378, 0.3561, 0.3751, 0.3947, 0.4150, 0.3999, 0.3853, 0.3710, 0.3570, 0.3210, 0.2875, 0.2564, 0.2276, 0.1951, 0.1658, 0.1397, 0.1164, 0.0962, 0.0785, 0.0632, 0.0499, 0.0417, 0.0344, 0.0280, 0.0225, 0.0202, 0.0181, 0.0161, 0.0142, 0.0163, 0.0185, 0.0210, 0.0237, 0.0285, 0.0340, 0.0402, 0.0471, 0.0498, 0.0526, 0.0555, 0.0585, 0.0555, 0.0526, 0.0498, 0.0471, 0.0435, 0.0401, 0.0369, 0.0339, 0.0331, 0.0324, 0.0317, 0.0310, 0.0340, 0.0371, 0.0404, 0.0440, 0.0510, 0.0588, 0.0673, 0.0766, 0.0909, 0.1070, 0.1248, 0.1445, 0.1608, 0.1784, 0.1972, 0.2173, 0.2231, 0.2290, 0.2350, 0.2411, 0.2336, 0.2263, 0.2192, 0.2122, 0.2011, 0.1904, 0.1801, 0.1701, 0.1572, 0.1449, 0.1333, 0.1224, 0.1198, 0.1172, 0.1147, 0.1122, 0.1172, 0.1224, 0.1277, 0.1331, 0.1350, 0.1368, 0.1387]
