// ============================================================================
// WIND POWER SHAPE - Real NASA Data for 2025-06-22
// Location: Jaffna, Sri Lanka (9.7423N, 80.0352E)
// Source: NASA/POWER MERRA-2 WS50M, converted via turbine power curve
// ============================================================================

New Loadshape.Wind_20250622
~   npts=96  interval=0.25
~   mult=[0.2607, 0.2713, 0.2821, 0.2933, 0.3047, 0.3031, 0.3016, 0.3000, 0.2984, 0.2860, 0.2739, 0.2621, 0.2507, 0.2316, 0.2135, 0.1963, 0.1801, 0.1685, 0.1575, 0.1469, 0.1368, 0.1301, 0.1237, 0.1174, 0.1114, 0.1174, 0.1237, 0.1301, 0.1368, 0.1474, 0.1585, 0.1701, 0.1823, 0.1910, 0.1999, 0.2091, 0.2186, 0.2234, 0.2283, 0.2333, 0.2383, 0.2366, 0.2350, 0.2333, 0.2316, 0.2319, 0.2323, 0.2326, 0.2329, 0.2360, 0.2390, 0.2421, 0.2452, 0.2397, 0.2343, 0.2290, 0.2237, 0.2182, 0.2128, 0.2075, 0.2023, 0.2014, 0.2005, 0.1996, 0.1987, 0.1904, 0.1823, 0.1745, 0.1669, 0.1619, 0.1569, 0.1521, 0.1474, 0.1534, 0.1595, 0.1658, 0.1723, 0.1875, 0.2035, 0.2205, 0.2383, 0.2407, 0.2431, 0.2455, 0.2480, 0.2469, 0.2459, 0.2448, 0.2438, 0.2511, 0.2585, 0.2661, 0.2739, 0.2529, 0.2329, 0.2141]
