// ============================================================================
// WIND POWER SHAPE - Real NASA Data for 2025-06-16
// Location: Jaffna, Sri Lanka (9.7423N, 80.0352E)
// Source: NASA/POWER MERRA-2 WS50M, converted via turbine power curve
// ============================================================================

New Loadshape.Wind_20250616
~   npts=96  interval=0.25
~   mult=[1.0000, 1.0000, 1.0000, 1.0000, 1.0000, 0.9886, 0.9772, 0.9660, 0.9548, 0.9523, 0.9497, 0.9471, 0.9446, 0.9403, 0.9361, 0.9319, 0.9277, 0.9143, 0.9011, 0.8880, 0.8750, 0.8598, 0.8447, 0.8298, 0.8151, 0.8128, 0.8105, 0.8082, 0.8059, 0.7907, 0.7757, 0.7609, 0.7463, 0.7376, 0.7290, 0.7205, 0.7120, 0.7057, 0.6994, 0.6932, 0.6870, 0.6842, 0.6815, 0.6787, 0.6760, 0.6753, 0.6747, 0.6740, 0.6733, 0.6794, 0.6856, 0.6918, 0.6980, 0.7276, 0.7580, 0.7892, 0.8213, 0.8678, 0.9160, 0.9660, 1.0000, 1.0000, 1.0000, 1.0000, 1.0000, 1.0000, 1.0000, 1.0000, 1.0000, 1.0000, 1.0000, 1.0000, 1.0000, 1.0000, 1.0000, 1.0000, 1.0000, 1.0000, 1.0000, 1.0000, 1.0000, 1.0000, 1.0000, 0.9755, 0.9378, 0.9135, 0.8896, 0.8662, 0.8431, 0.8361, 0.8290, 0.8220, 0.8151, 0.7983, 0.7817, 0.7653]
