// ============================================================================
// WIND POWER SHAPE - Real NASA Data for 2025-05-19
// Location: Jaffna, Sri Lanka (9.7423N, 80.0352E)
// Source: NASA/POWER MERRA-2 WS50M, converted via turbine power curve
// ============================================================================

New Loadshape.Wind_20250519
~   npts=96  interval=0.25
~   mult=[0.0010, 0.0015, 0.0023, 0.0032, 0.0043, 0.0049, 0.0055, 0.0062, 0.0069, 0.0075, 0.0082, 0.0089, 0.0097, 0.0098, 0.0100, 0.0101, 0.0103, 0.0104, 0.0106, 0.0107, 0.0108, 0.0108, 0.0108, 0.0108, 0.0108, 0.0104, 0.0099, 0.0095, 0.0090, 0.0099, 0.0109, 0.0119, 0.0130, 0.0147, 0.0164, 0.0183, 0.0203, 0.0229, 0.0256, 0.0285, 0.0317, 0.0341, 0.0367, 0.0394, 0.0422, 0.0450, 0.0478, 0.0508, 0.0539, 0.0583, 0.0629, 0.0677, 0.0728, 0.0792, 0.0859, 0.0929, 0.1004, 0.1112, 0.1228, 0.1352, 0.1484, 0.1650, 0.1829, 0.2020, 0.2224, 0.2380, 0.2543, 0.2713, 0.2890, 0.3120, 0.3361, 0.3615, 0.3881, 0.4219, 0.4576, 0.4952, 0.5349, 0.5803, 0.6283, 0.6787, 0.7319, 0.7550, 0.7787, 0.8028, 0.8275, 0.8213, 0.8151, 0.8089, 0.8028, 0.7847, 0.7668, 0.7492, 0.7319, 0.7106, 0.6897, 0.6692]
