// ============================================================================
// WIND POWER SHAPE - Real NASA Data for 2025-08-04
// Location: Jaffna, Sri Lanka (9.7423N, 80.0352E)
// Source: NASA/POWER MERRA-2 WS50M, converted via turbine power curve
// ============================================================================

New Loadshape.Wind_20250804
~   npts=96  interval=0.25
~   mult=[0.0623, 0.0706, 0.0795, 0.0892, 0.0996, 0.1040, 0.1086, 0.1133, 0.1181, 0.1108, 0.1038, 0.0971, 0.0908, 0.0785, 0.0674, 0.0575, 0.0485, 0.0396, 0.0319, 0.0252, 0.0196, 0.0134, 0.0087, 0.0053, 0.0029, 0.0013, 0.0004, 0.0001, 0.0000, 0.0000, 0.0000, 0.0000, 0.0000, 0.0000, 0.0000, 0.0000, 0.0000, 0.0000, 0.0000, 0.0000, 0.0000, 0.0000, 0.0000, 0.0000, 0.0000, 0.0000, 0.0000, 0.0000, 0.0000, 0.0000, 0.0000, 0.0000, 0.0000, 0.0000, 0.0000, 0.0000, 0.0000, 0.0000, 0.0000, 0.0000, 0.0000, 0.0000, 0.0000, 0.0000, 0.0000, 0.0000, 0.0000, 0.0000, 0.0000, 0.0000, 0.0000, 0.0000, 0.0000, 0.0000, 0.0000, 0.0000, 0.0000, 0.0000, 0.0000, 0.0000, 0.0000, 0.0000, 0.0000, 0.0003, 0.0008, 0.0016, 0.0028, 0.0045, 0.0067, 0.0090, 0.0119, 0.0153, 0.0193, 0.0220, 0.0250, 0.0282]
