// ============================================================================
// WIND POWER SHAPE - Real NASA Data for 2025-05-02
// Location: Jaffna, Sri Lanka (9.7423N, 80.0352E)
// Source: NASA/POWER MERRA-2 WS50M, converted via turbine power curve
// ============================================================================

New Loadshape.Wind_20250502
~   npts=96  interval=0.25
~   mult=[0.0196, 0.0189, 0.0183, 0.0177, 0.0171, 0.0166, 0.0161, 0.0156, 0.0151, 0.0145, 0.0140, 0.0135, 0.0130, 0.0121, 0.0112, 0.0103, 0.0095, 0.0088, 0.0081, 0.0074, 0.0068, 0.0060, 0.0053, 0.0046, 0.0040, 0.0037, 0.0035, 0.0032, 0.0030, 0.0028, 0.0027, 0.0026, 0.0025, 0.0023, 0.0021, 0.0019, 0.0018, 0.0016, 0.0014, 0.0012, 0.0010, 0.0009, 0.0008, 0.0007, 0.0007, 0.0006, 0.0006, 0.0006, 0.0006, 0.0006, 0.0006, 0.0006, 0.0006, 0.0007, 0.0008, 0.0009, 0.0010, 0.0012, 0.0015, 0.0019, 0.0023, 0.0028, 0.0033, 0.0040, 0.0047, 0.0054, 0.0063, 0.0072, 0.0083, 0.0095, 0.0107, 0.0121, 0.0136, 0.0147, 0.0158, 0.0170, 0.0183, 0.0197, 0.0211, 0.0227, 0.0242, 0.0258, 0.0275, 0.0292, 0.0310, 0.0336, 0.0363, 0.0392, 0.0422, 0.0455, 0.0490, 0.0526, 0.0564, 0.0600, 0.0637, 0.0676]
