// ============================================================================
// WIND POWER SHAPE - Real NASA Data for 2025-05-04
// Location: Jaffna, Sri Lanka (9.7423N, 80.0352E)
// Source: NASA/POWER MERRA-2 WS50M, converted via turbine power curve
// ============================================================================

New Loadshape.Wind_20250504
~   npts=96  interval=0.25
~   mult=[0.0539, 0.0516, 0.0495, 0.0473, 0.0453, 0.0428, 0.0403, 0.0380, 0.0357, 0.0329, 0.0301, 0.0276, 0.0251, 0.0221, 0.0193, 0.0168, 0.0144, 0.0119, 0.0097, 0.0077, 0.0061, 0.0046, 0.0033, 0.0023, 0.0016, 0.0011, 0.0007, 0.0004, 0.0002, 0.0002, 0.0001, 0.0001, 0.0001, 0.0001, 0.0000, 0.0000, 0.0000, 0.0000, 0.0001, 0.0001, 0.0001, 0.0001, 0.0001, 0.0001, 0.0001, 0.0001, 0.0001, 0.0001, 0.0001, 0.0001, 0.0000, 0.0000, 0.0000, 0.0000, 0.0000, 0.0000, 0.0000, 0.0000, 0.0000, 0.0000, 0.0000, 0.0000, 0.0000, 0.0000, 0.0000, 0.0000, 0.0000, 0.0000, 0.0000, 0.0000, 0.0000, 0.0000, 0.0000, 0.0000, 0.0000, 0.0000, 0.0000, 0.0000, 0.0000, 0.0000, 0.0000, 0.0000, 0.0001, 0.0008, 0.0025, 0.0049, 0.0085, 0.0136, 0.0203, 0.0254, 0.0313, 0.0381, 0.0457, 0.0478, 0.0499, 0.0521]
