// ============================================================================
// WIND POWER SHAPE - Real NASA Data for 2025-07-12
// Location: Jaffna, Sri Lanka (9.7423N, 80.0352E)
// Source: NASA/POWER MERRA-2 WS50M, converted via turbine power curve
// ============================================================================

New Loadshape.Wind_20250712
~   npts=96  interval=0.25
~   mult=[0.3378, 0.3227, 0.3079, 0.2937, 0.2799, 0.2683, 0.2571, 0.2462, 0.2356, 0.2214, 0.2078, 0.1948, 0.1823, 0.1666, 0.1519, 0.1380, 0.1250, 0.1137, 0.1030, 0.0931, 0.0838, 0.0744, 0.0657, 0.0577, 0.0504, 0.0475, 0.0446, 0.0419, 0.0393, 0.0416, 0.0440, 0.0464, 0.0490, 0.0532, 0.0577, 0.0625, 0.0674, 0.0685, 0.0695, 0.0706, 0.0716, 0.0685, 0.0654, 0.0625, 0.0596, 0.0524, 0.0457, 0.0397, 0.0342, 0.0262, 0.0196, 0.0141, 0.0098, 0.0065, 0.0040, 0.0023, 0.0011, 0.0007, 0.0004, 0.0002, 0.0001, 0.0002, 0.0004, 0.0007, 0.0010, 0.0025, 0.0050, 0.0087, 0.0138, 0.0217, 0.0322, 0.0456, 0.0623, 0.0761, 0.0918, 0.1096, 0.1295, 0.1454, 0.1627, 0.1812, 0.2011, 0.2189, 0.2377, 0.2575, 0.2784, 0.2937, 0.3096, 0.3260, 0.3430, 0.3539, 0.3651, 0.3765, 0.3881, 0.3871, 0.3862, 0.3853]
