// ============================================================================
// WIND POWER SHAPE - Real NASA Data for 2025-07-05
// Location: Jaffna, Sri Lanka (9.7423N, 80.0352E)
// Source: NASA/POWER MERRA-2 WS50M, converted via turbine power curve
// ============================================================================

New Loadshape.Wind_20250705
~   npts=96  interval=0.25
~   mult=[0.0973, 0.1044, 0.1118, 0.1196, 0.1277, 0.1378, 0.1484, 0.1595, 0.1712, 0.1742, 0.1773, 0.1804, 0.1835, 0.1781, 0.1729, 0.1677, 0.1627, 0.1541, 0.1459, 0.1380, 0.1304, 0.1209, 0.1118, 0.1032, 0.0951, 0.0931, 0.0911, 0.0892, 0.0873, 0.0869, 0.0866, 0.0862, 0.0859, 0.0828, 0.0798, 0.0769, 0.0741, 0.0712, 0.0683, 0.0656, 0.0629, 0.0633, 0.0637, 0.0641, 0.0646, 0.0660, 0.0674, 0.0689, 0.0704, 0.0709, 0.0713, 0.0718, 0.0722, 0.0755, 0.0789, 0.0823, 0.0859, 0.0977, 0.1106, 0.1246, 0.1397, 0.1575, 0.1767, 0.1975, 0.2198, 0.2316, 0.2438, 0.2564, 0.2694, 0.2750, 0.2806, 0.2863, 0.2921, 0.2937, 0.2953, 0.2968, 0.2984, 0.2833, 0.2687, 0.2546, 0.2411, 0.2438, 0.2466, 0.2493, 0.2522, 0.2654, 0.2791, 0.2933, 0.3079, 0.3165, 0.3252, 0.3340, 0.3430, 0.3491, 0.3552, 0.3615]
