// ============================================================================
// WIND POWER SHAPE - Real NASA Data for 2025-08-21
// Location: Jaffna, Sri Lanka (9.7423N, 80.0352E)
// Source: NASA/POWER MERRA-2 WS50M, converted via turbine power curve
// ============================================================================

New Loadshape.Wind_20250821
~   npts=96  interval=0.25
~   mult=[0.0680, 0.0649, 0.0618, 0.0588, 0.0559, 0.0521, 0.0485, 0.0451, 0.0418, 0.0375, 0.0335, 0.0298, 0.0264, 0.0226, 0.0192, 0.0161, 0.0134, 0.0109, 0.0087, 0.0069, 0.0053, 0.0037, 0.0025, 0.0016, 0.0009, 0.0004, 0.0001, 0.0000, 0.0000, 0.0000, 0.0000, 0.0000, 0.0000, 0.0000, 0.0000, 0.0000, 0.0000, 0.0000, 0.0000, 0.0000, 0.0000, 0.0000, 0.0000, 0.0000, 0.0000, 0.0000, 0.0000, 0.0000, 0.0000, 0.0000, 0.0000, 0.0000, 0.0000, 0.0000, 0.0000, 0.0000, 0.0000, 0.0000, 0.0000, 0.0000, 0.0000, 0.0000, 0.0000, 0.0000, 0.0000, 0.0000, 0.0000, 0.0000, 0.0000, 0.0000, 0.0000, 0.0000, 0.0000, 0.0000, 0.0000, 0.0000, 0.0000, 0.0000, 0.0000, 0.0000, 0.0000, 0.0000, 0.0001, 0.0004, 0.0012, 0.0028, 0.0054, 0.0092, 0.0144, 0.0164, 0.0184, 0.0207, 0.0231, 0.0226, 0.0221, 0.0216]
