// ============================================================================
// WIND POWER SHAPE - Real NASA Data for 2025-06-27
// Location: Jaffna, Sri Lanka (9.7423N, 80.0352E)
// Source: NASA/POWER MERRA-2 WS50M, converted via turbine power curve
// ============================================================================

New Loadshape.Wind_20250627
~   npts=96  interval=0.25
~   mult=[0.7967, 0.7646, 0.7333, 0.7029, 0.6733, 0.6212, 0.5718, 0.5251, 0.4810, 0.4467, 0.4140, 0.3829, 0.3535, 0.3319, 0.3112, 0.2914, 0.2724, 0.2532, 0.2350, 0.2176, 0.2011, 0.1773, 0.1554, 0.1354, 0.1172, 0.1058, 0.0951, 0.0852, 0.0760, 0.0641, 0.0536, 0.0443, 0.0361, 0.0306, 0.0257, 0.0214, 0.0176, 0.0155, 0.0136, 0.0119, 0.0103, 0.0099, 0.0095, 0.0091, 0.0087, 0.0082, 0.0077, 0.0071, 0.0067, 0.0058, 0.0050, 0.0043, 0.0037, 0.0037, 0.0037, 0.0038, 0.0038, 0.0053, 0.0071, 0.0093, 0.0119, 0.0169, 0.0232, 0.0309, 0.0401, 0.0490, 0.0591, 0.0704, 0.0832, 0.0915, 0.1004, 0.1098, 0.1198, 0.1243, 0.1290, 0.1338, 0.1387, 0.1418, 0.1449, 0.1481, 0.1514, 0.1486, 0.1459, 0.1432, 0.1406, 0.1350, 0.1295, 0.1241, 0.1189, 0.1196, 0.1202, 0.1209, 0.1215, 0.1166, 0.1118, 0.1072]
