// ============================================================================
// WIND POWER SHAPE - Real NASA Data for 2025-05-21
// Location: Jaffna, Sri Lanka (9.7423N, 80.0352E)
// Source: NASA/POWER MERRA-2 WS50M, converted via turbine power curve
// ============================================================================

New Loadshape.Wind_20250521
~   npts=96  interval=0.25
~   mult=[1.0000, 1.0000, 0.9859, 0.9600, 0.9344, 0.8978, 0.8622, 0.8275, 0.7937, 0.7528, 0.7134, 0.6753, 0.6387, 0.6154, 0.5927, 0.5706, 0.5490, 0.5199, 0.4919, 0.4650, 0.4390, 0.4204, 0.4023, 0.3848, 0.3678, 0.3575, 0.3473, 0.3374, 0.3277, 0.3378, 0.3482, 0.3588, 0.3696, 0.3797, 0.3900, 0.4004, 0.4110, 0.4229, 0.4349, 0.4472, 0.4597, 0.4729, 0.4865, 0.5002, 0.5143, 0.5268, 0.5396, 0.5526, 0.5657, 0.5688, 0.5718, 0.5748, 0.5779, 0.5621, 0.5466, 0.5314, 0.5165, 0.4821, 0.4492, 0.4179, 0.3881, 0.3570, 0.3277, 0.3000, 0.2739, 0.2713, 0.2687, 0.2661, 0.2636, 0.2844, 0.3063, 0.3293, 0.3535, 0.3615, 0.3696, 0.3778, 0.3862, 0.3701, 0.3544, 0.3391, 0.3243, 0.3096, 0.2953, 0.2814, 0.2680, 0.2603, 0.2529, 0.2455, 0.2383, 0.2370, 0.2356, 0.2343, 0.2329, 0.2280, 0.2231, 0.2182]
