// ============================================================================
// WIND POWER SHAPE - Real NASA Data for 2025-07-07
// Location: Jaffna, Sri Lanka (9.7423N, 80.0352E)
// Source: NASA/POWER MERRA-2 WS50M, converted via turbine power curve
// ============================================================================

New Loadshape.Wind_20250707
~   npts=96  interval=0.25
~   mult=[0.6706, 0.6645, 0.6585, 0.6525, 0.6466, 0.6361, 0.6257, 0.6154, 0.6052, 0.5908, 0.5767, 0.5627, 0.5490, 0.5390, 0.5291, 0.5194, 0.5097, 0.5002, 0.4908, 0.4816, 0.4724, 0.4708, 0.4692, 0.4676, 0.4660, 0.4692, 0.4724, 0.4756, 0.4789, 0.4843, 0.4897, 0.4952, 0.5008, 0.5041, 0.5075, 0.5109, 0.5143, 0.5109, 0.5075, 0.5041, 0.5008, 0.4964, 0.4919, 0.4876, 0.4832, 0.4697, 0.4565, 0.4436, 0.4309, 0.4159, 0.4014, 0.3871, 0.3732, 0.3579, 0.3430, 0.3285, 0.3144, 0.3152, 0.3161, 0.3169, 0.3177, 0.3336, 0.3500, 0.3669, 0.3843, 0.3966, 0.4091, 0.4219, 0.4349, 0.4385, 0.4420, 0.4456, 0.4492, 0.4503, 0.4513, 0.4524, 0.4534, 0.4560, 0.4586, 0.4613, 0.4639, 0.4697, 0.4756, 0.4816, 0.4876, 0.4886, 0.4897, 0.4908, 0.4919, 0.4964, 0.5008, 0.5053, 0.5097, 0.4958, 0.4821, 0.4687]
