// ============================================================================
// WIND POWER SHAPE - Real NASA Data for 2025-05-22
// Location: Jaffna, Sri Lanka (9.7423N, 80.0352E)
// Source: NASA/POWER MERRA-2 WS50M, converted via turbine power curve
// ============================================================================

New Loadshape.Wind_20250522
~   npts=96  interval=0.25
~   mult=[0.2135, 0.2082, 0.2029, 0.1978, 0.1927, 0.1866, 0.1806, 0.1748, 0.1691, 0.1621, 0.1554, 0.1489, 0.1425, 0.1364, 0.1304, 0.1246, 0.1189, 0.1172, 0.1155, 0.1139, 0.1122, 0.1062, 0.1004, 0.0947, 0.0893, 0.0852, 0.0811, 0.0772, 0.0735, 0.0712, 0.0689, 0.0667, 0.0646, 0.0627, 0.0609, 0.0592, 0.0575, 0.0563, 0.0551, 0.0540, 0.0529, 0.0520, 0.0511, 0.0503, 0.0495, 0.0501, 0.0507, 0.0513, 0.0519, 0.0520, 0.0521, 0.0522, 0.0524, 0.0507, 0.0490, 0.0473, 0.0457, 0.0439, 0.0420, 0.0402, 0.0385, 0.0398, 0.0412, 0.0426, 0.0440, 0.0514, 0.0596, 0.0686, 0.0785, 0.0966, 0.1172, 0.1406, 0.1669, 0.1930, 0.2218, 0.2532, 0.2875, 0.3116, 0.3370, 0.3637, 0.3918, 0.4038, 0.4159, 0.4284, 0.4410, 0.4492, 0.4576, 0.4660, 0.4746, 0.4854, 0.4964, 0.5075, 0.5188, 0.5171, 0.5154, 0.5137]
