// ============================================================================
// WIND POWER SHAPE - Real NASA Data for 2025-05-31
// Location: Jaffna, Sri Lanka (9.7423N, 80.0352E)
// Source: NASA/POWER MERRA-2 WS50M, converted via turbine power curve
// ============================================================================

New Loadshape.Wind_20250531
~   npts=96  interval=0.25
~   mult=[0.7757, 0.7764, 0.7772, 0.7779, 0.7787, 0.7899, 0.8013, 0.8128, 0.8244, 0.8518, 0.8799, 0.9085, 0.9378, 0.9285, 0.9193, 0.9102, 0.9011, 0.8718, 0.8431, 0.8151, 0.7877, 0.7683, 0.7492, 0.7304, 0.7120, 0.7057, 0.6994, 0.6932, 0.6870, 0.6918, 0.6966, 0.7015, 0.7064, 0.7383, 0.7712, 0.8051, 0.8400, 0.8807, 0.9227, 0.9660, 1.0000, 1.0000, 1.0000, 1.0000, 1.0000, 1.0000, 1.0000, 1.0000, 1.0000, 0.9764, 0.9497, 0.9235, 0.8978, 0.8502, 0.8044, 0.7602, 0.7176, 0.6726, 0.6296, 0.5884, 0.5490, 0.5297, 0.5109, 0.4925, 0.4746, 0.4767, 0.4789, 0.4810, 0.4832, 0.4713, 0.4597, 0.4482, 0.4369, 0.4249, 0.4130, 0.4014, 0.3900, 0.3937, 0.3975, 0.4014, 0.4052, 0.4244, 0.4441, 0.4644, 0.4854, 0.5041, 0.5234, 0.5431, 0.5633, 0.5657, 0.5681, 0.5706, 0.5730, 0.5633, 0.5537, 0.5443]
